@<TRIPOS>MOLECULE
*****
 33 37 0 0 0
SMALL
GASTEIGER

@<TRIPOS>ATOM
      1 C         140.1846  140.7683  161.6506 C.3     1  UNL1        0.0339
      2 C         140.5266  141.6312  162.8289 C.ar    1  UNL1        0.0095
      3 C         141.2590  142.9241  162.6243 C.ar    1  UNL1        0.0730
      4 C         141.6011  143.7870  163.8026 C.ar    1  UNL1        0.1531
      5 F         142.3335  145.0800  163.5979 F       1  UNL1       -0.2029
      6 C         141.2108  143.3569  165.1856 C.ar    1  UNL1        0.0320
      7 C         140.4784  142.0640  165.3902 C.ar    1  UNL1        0.0145
      8 C         140.0880  141.6338  166.7733 C.ar    1  UNL1       -0.0069
      9 C         139.3557  140.3409  166.9779 C.ar    1  UNL1        0.0570
     10 C         139.0136  139.4780  165.7996 C.ar    1  UNL1        0.2606
     11 O         138.2812  138.1850  166.0043 O.2     1  UNL1       -0.2670
     12 N         139.4039  139.9081  164.4166 N.ar    1  UNL1       -0.2977
     13 C         140.1363  141.2011  164.2119 C.ar    1  UNL1        0.0594
     14 N         141.6494  143.3542  161.2412 N.pl3   1  UNL1       -0.3059
     15 C         142.8306  142.8550  160.4631 C.3     1  UNL1        0.0909
     16 C         142.8383  143.5513  159.1345 C.3     1  UNL1        0.0244
     17 C         141.6618  144.4808  159.0916 C.3     1  UNL1        0.0344
     18 C         140.9270  144.3590  160.3936 C.3     1  UNL1        0.0921
     19 C         141.2861  145.3752  157.9474 C.3     1  UNL1        0.0406
     20 N         142.5251  146.2156  157.8561 N.3     1  UNL1       -0.3231
     21 C         140.4801  145.9776  156.8351 C.3     1  UNL1        0.0156
     22 C         139.9166  144.8452  157.6415 C.3     1  UNL1        0.0156
     23 H         143.1906  145.9189  158.5698 H       1  UNL1        0.1188
     24 H         142.2830  147.1954  158.0033 H       1  UNL1        0.1188
     25 C         139.0619  139.0452  163.2383 C.3     1  UNL1        0.0885
     26 C         138.1080  138.6520  162.1495 C.3     1  UNL1        0.0246
     27 C         139.4233  137.9440  162.2861 C.3     1  UNL1        0.0246
     28 C         140.4301  142.4967  167.9516 C.3     1  UNL1        0.1118
     29 C         140.5174  141.8940  169.3223 C.2     1  UNL1        0.2302
     30 O         139.2776  141.7328  170.1512 O.2     1  UNL1       -0.2745
     31 N         141.8445  141.4524  169.8644 N.am    1  UNL1       -0.2758
     32 C         141.9318  140.8497  171.2352 C.3     1  UNL1        0.1149
     33 C         143.0843  141.6136  169.0356 C.3     1  UNL1        0.1149
@<TRIPOS>BOND
     1     1     2    1
     2     2     3   ar
     3     3    14    1
     4    14    15    1
     5    15    16    1
     6    16    17    1
     7    17    19    1
     8    19    20    1
     9    19    21    1
    10    21    22    1
    11    17    18    1
    12     3     4   ar
    13     4     5    1
    14     4     6   ar
    15     6     7   ar
    16     7     8   ar
    17     8    28    1
    18    28    29    1
    19    29    30    2
    20    29    31   am
    21    31    32    1
    22    31    33    1
    23     8     9   ar
    24     9    10   ar
    25    10    11    2
    26    10    12   ar
    27    12    25    1
    28    25    26    1
    29    26    27    1
    30    12    13   ar
    31    13     2   ar
    32    18    14    1
    33    13     7   ar
    34    22    19    1
    35    27    25    1
    36    20    23    1
    37    20    24    1
@<TRIPOS>MOLECULE
*****
 33 37 0 0 0
SMALL
GASTEIGER

@<TRIPOS>ATOM
      1 C         138.8403  142.2324  164.9298 C.3     1  UNL1        0.0339
      2 C         139.0996  140.9400  164.2139 C.ar    1  UNL1        0.0095
      3 C         139.3306  139.6819  164.9973 C.ar    1  UNL1        0.0730
      4 C         139.5898  138.3895  164.2814 C.ar    1  UNL1        0.1531
      5 F         139.8208  137.1314  165.0648 F       1  UNL1       -0.2029
      6 C         139.6181  138.3553  162.7821 C.ar    1  UNL1        0.0320
      7 C         139.3871  139.6134  161.9987 C.ar    1  UNL1        0.0145
      8 C         139.4154  139.5792  160.4993 C.ar    1  UNL1       -0.0069
      9 C         139.1844  140.8373  159.7159 C.ar    1  UNL1        0.0570
     10 C         138.9252  142.1297  160.4318 C.ar    1  UNL1        0.2606
     11 O         138.6942  143.3878  159.6483 O.2     1  UNL1       -0.2670
     12 N         138.8969  142.1639  161.9311 N.ar    1  UNL1       -0.2977
     13 C         139.1279  140.9058  162.7146 C.ar    1  UNL1        0.0594
     14 N         139.3023  139.7161  166.4967 N.pl3   1  UNL1       -0.3059
     15 C         138.1340  139.3539  167.3650 C.3     1  UNL1        0.0909
     16 C         138.5470  139.5324  168.7959 C.3     1  UNL1        0.0244
     17 C         139.9705  140.0051  168.8120 C.3     1  UNL1        0.0344
     18 C         140.4373  140.1186  167.3910 C.3     1  UNL1        0.0921
     19 C         140.7844  140.3105  170.0344 C.3     1  UNL1        0.0406
     20 N         139.9445  139.6400  171.0807 N.3     1  UNL1       -0.3231
     21 C         141.8899  140.8489  170.8934 C.3     1  UNL1        0.0156
     22 C         141.9069  141.0872  169.4126 C.3     1  UNL1        0.0156
     23 H         139.1293  139.2133  170.6404 H       1  UNL1        0.1188
     24 H         139.6382  140.3313  171.7654 H       1  UNL1        0.1188
     25 C         138.6376  143.4563  162.6471 C.3     1  UNL1        0.0885
     26 C         139.1422  144.7460  163.2233 C.3     1  UNL1        0.0246
     27 C         137.6841  144.4050  163.3108 C.3     1  UNL1        0.0246
     28 C         139.6747  138.2868  159.7834 C.3     1  UNL1        0.1118
     29 C         140.1925  138.3000  158.3757 C.2     1  UNL1        0.2302
     30 O         139.2335  138.3697  157.2243 O.2     1  UNL1       -0.2745
     31 N         141.6693  138.2435  158.1193 N.am    1  UNL1       -0.2758
     32 C         142.1872  138.2567  156.7115 C.3     1  UNL1        0.1149
     33 C         142.6283  138.1738  159.2705 C.3     1  UNL1        0.1149
@<TRIPOS>BOND
     1     1     2    1
     2     2     3   ar
     3     3    14    1
     4    14    15    1
     5    15    16    1
     6    16    17    1
     7    17    19    1
     8    19    20    1
     9    19    21    1
    10    21    22    1
    11    17    18    1
    12     3     4   ar
    13     4     5    1
    14     4     6   ar
    15     6     7   ar
    16     7     8   ar
    17     8    28    1
    18    28    29    1
    19    29    30    2
    20    29    31   am
    21    31    32    1
    22    31    33    1
    23     8     9   ar
    24     9    10   ar
    25    10    11    2
    26    10    12   ar
    27    12    25    1
    28    25    26    1
    29    26    27    1
    30    12    13   ar
    31    13     2   ar
    32    18    14    1
    33    13     7   ar
    34    22    19    1
    35    27    25    1
    36    20    23    1
    37    20    24    1
@<TRIPOS>MOLECULE
*****
 33 37 0 0 0
SMALL
GASTEIGER

@<TRIPOS>ATOM
      1 C         141.5022  142.6933  164.8720 C.3     1  UNL1        0.0339
      2 C         141.1982  141.5107  164.0008 C.ar    1  UNL1        0.0095
      3 C         140.6920  140.2384  164.6132 C.ar    1  UNL1        0.0730
      4 C         140.3880  139.0558  163.7420 C.ar    1  UNL1        0.1531
      5 F         139.8818  137.7834  164.3544 F       1  UNL1       -0.2029
      6 C         140.5902  139.1454  162.2584 C.ar    1  UNL1        0.0320
      7 C         141.0964  140.4177  161.6460 C.ar    1  UNL1        0.0145
      8 C         141.2986  140.5074  160.1624 C.ar    1  UNL1       -0.0069
      9 C         141.8048  141.7797  159.5500 C.ar    1  UNL1        0.0570
     10 C         142.1088  142.9623  160.4212 C.ar    1  UNL1        0.2606
     11 O         142.6150  144.2346  159.8088 O.2     1  UNL1       -0.2670
     12 N         141.9066  142.8726  161.9048 N.ar    1  UNL1       -0.2977
     13 C         141.4004  141.6003  162.5172 C.ar    1  UNL1        0.0594
     14 N         140.4898  140.1487  166.0968 N.pl3   1  UNL1       -0.3059
     15 C         139.1709  140.0285  166.8012 C.3     1  UNL1        0.0909
     16 C         139.4369  139.9689  168.2762 C.3     1  UNL1        0.0244
     17 C         140.9202  140.0524  168.4835 C.3     1  UNL1        0.0344
     18 C         141.5709  140.1635  167.1365 C.3     1  UNL1        0.0921
     19 C         141.6284  140.0289  169.8055 C.3     1  UNL1        0.0406
     20 N         140.5615  139.4136  170.6617 N.3     1  UNL1       -0.3231
     21 C         142.7072  140.2191  170.8302 C.3     1  UNL1        0.0156
     22 C         142.9413  140.6360  169.4085 C.3     1  UNL1        0.0156
     23 H         139.7380  139.2199  170.0918 H       1  UNL1        0.1188
     24 H         140.3123  140.0594  171.4109 H       1  UNL1        0.1188
     25 C         142.2106  144.0553  162.7760 C.3     1  UNL1        0.0885
     26 C         141.7554  145.2916  163.4931 C.3     1  UNL1        0.0246
     27 C         143.1922  144.8672  163.5678 C.3     1  UNL1        0.0246
     28 C         140.9946  139.3248  159.2912 C.3     1  UNL1        0.1118
     29 C         142.1142  138.5427  158.6709 C.2     1  UNL1        0.2302
     30 O         143.5054  138.6609  159.2192 O.2     1  UNL1       -0.2745
     31 N         141.8426  137.6424  157.5022 N.am    1  UNL1       -0.2758
     32 C         142.9622  136.8603  156.8819 C.3     1  UNL1        0.1149
     33 C         140.4514  137.5242  156.9539 C.3     1  UNL1        0.1149
@<TRIPOS>BOND
     1     1     2    1
     2     2     3   ar
     3     3    14    1
     4    14    15    1
     5    15    16    1
     6    16    17    1
     7    17    19    1
     8    19    20    1
     9    19    21    1
    10    21    22    1
    11    17    18    1
    12     3     4   ar
    13     4     5    1
    14     4     6   ar
    15     6     7   ar
    16     7     8   ar
    17     8    28    1
    18    28    29    1
    19    29    30    2
    20    29    31   am
    21    31    32    1
    22    31    33    1
    23     8     9   ar
    24     9    10   ar
    25    10    11    2
    26    10    12   ar
    27    12    25    1
    28    25    26    1
    29    26    27    1
    30    12    13   ar
    31    13     2   ar
    32    18    14    1
    33    13     7   ar
    34    22    19    1
    35    27    25    1
    36    20    23    1
    37    20    24    1
@<TRIPOS>MOLECULE
*****
 33 37 0 0 0
SMALL
GASTEIGER

@<TRIPOS>ATOM
      1 C         142.7711  141.0247  165.0033 C.3     1  UNL1        0.0339
      2 C         141.7087  141.8109  164.2939 C.ar    1  UNL1        0.0095
      3 C         140.3611  141.9923  164.9272 C.ar    1  UNL1        0.0730
      4 C         139.2987  142.7784  164.2179 C.ar    1  UNL1        0.1531
      5 F         137.9511  142.9598  164.8513 F       1  UNL1       -0.2029
      6 C         139.5839  143.3832  162.8752 C.ar    1  UNL1        0.0320
      7 C         140.9315  143.2019  162.2419 C.ar    1  UNL1        0.0145
      8 C         141.2167  143.8067  160.8991 C.ar    1  UNL1       -0.0069
      9 C         142.5642  143.6253  160.2658 C.ar    1  UNL1        0.0570
     10 C         143.6266  142.8391  160.9752 C.ar    1  UNL1        0.2606
     11 O         144.9743  142.6578  160.3418 O.2     1  UNL1       -0.2670
     12 N         143.3415  142.2343  162.3179 N.ar    1  UNL1       -0.2977
     13 C         141.9939  142.4157  162.9512 C.ar    1  UNL1        0.0594
     14 N         140.0759  141.3874  166.2700 N.pl3   1  UNL1       -0.3059
     15 C         139.3147  140.1197  166.5222 C.3     1  UNL1        0.0909
     16 C         139.2702  139.8929  168.0043 C.3     1  UNL1        0.0244
     17 C         140.0038  141.0204  168.6680 C.3     1  UNL1        0.0344
     18 C         140.5018  141.9441  167.5962 C.3     1  UNL1        0.0921
     19 C         140.2043  141.1939  170.1445 C.3     1  UNL1        0.0406
     20 N         139.5224  139.9560  170.6470 N.3     1  UNL1       -0.3231
     21 C         140.6416  141.7972  171.4462 C.3     1  UNL1        0.0156
     22 C         140.9558  142.4920  170.1545 C.3     1  UNL1        0.0156
     23 H         139.1603  139.4226  169.8566 H       1  UNL1        0.1188
     24 H         138.7520  140.2181  171.2619 H       1  UNL1        0.1188
     25 C         144.4039  141.4481  163.0272 C.3     1  UNL1        0.0885
     26 C         145.6782  141.4046  163.8172 C.3     1  UNL1        0.0246
     27 C         144.9696  140.1300  163.4659 C.3     1  UNL1        0.0246
     28 C         140.1543  144.5929  160.1898 C.3     1  UNL1        0.1118
     29 C         140.1534  144.6711  158.6918 C.2     1  UNL1        0.2302
     30 O         140.8982  145.7729  157.9979 O.2     1  UNL1       -0.2745
     31 N         139.4078  143.6477  157.8878 N.am    1  UNL1       -0.2758
     32 C         139.4069  143.7259  156.3898 C.3     1  UNL1        0.1149
     33 C         138.6630  142.5460  158.5816 C.3     1  UNL1        0.1149
@<TRIPOS>BOND
     1     1     2    1
     2     2     3   ar
     3     3    14    1
     4    14    15    1
     5    15    16    1
     6    16    17    1
     7    17    19    1
     8    19    20    1
     9    19    21    1
    10    21    22    1
    11    17    18    1
    12     3     4   ar
    13     4     5    1
    14     4     6   ar
    15     6     7   ar
    16     7     8   ar
    17     8    28    1
    18    28    29    1
    19    29    30    2
    20    29    31   am
    21    31    32    1
    22    31    33    1
    23     8     9   ar
    24     9    10   ar
    25    10    11    2
    26    10    12   ar
    27    12    25    1
    28    25    26    1
    29    26    27    1
    30    12    13   ar
    31    13     2   ar
    32    18    14    1
    33    13     7   ar
    34    22    19    1
    35    27    25    1
    36    20    23    1
    37    20    24    1
@<TRIPOS>MOLECULE
*****
 33 37 0 0 0
SMALL
GASTEIGER

@<TRIPOS>ATOM
      1 C         142.3581  142.6558  164.6845 C.3     1  UNL1        0.0339
      2 C         141.7526  141.6166  163.7882 C.ar    1  UNL1        0.0095
      3 C         141.4248  140.2571  164.3308 C.ar    1  UNL1        0.0730
      4 C         140.8192  139.2179  163.4345 C.ar    1  UNL1        0.1531
      5 F         140.4914  137.8584  163.9771 F       1  UNL1       -0.2029
      6 C         140.5415  139.5381  161.9957 C.ar    1  UNL1        0.0320
      7 C         140.8693  140.8975  161.4531 C.ar    1  UNL1        0.0145
      8 C         140.5915  141.2178  160.0142 C.ar    1  UNL1       -0.0069
      9 C         140.9193  142.5773  159.4717 C.ar    1  UNL1        0.0570
     10 C         141.5248  143.6165  160.3679 C.ar    1  UNL1        0.2606
     11 O         141.8526  144.9760  159.8253 O.2     1  UNL1       -0.2670
     12 N         141.8026  143.2963  161.8068 N.ar    1  UNL1       -0.2977
     13 C         141.4748  141.9368  162.3494 C.ar    1  UNL1        0.0594
     14 N         141.7025  139.9369  165.7697 N.pl3   1  UNL1       -0.3059
     15 C         142.9456  139.2899  166.3049 C.3     1  UNL1        0.0909
     16 C         142.7973  139.1605  167.7919 C.3     1  UNL1        0.0244
     17 C         141.4626  139.7275  168.1757 C.3     1  UNL1        0.0344
     18 C         140.7861  140.2073  166.9259 C.3     1  UNL1        0.0921
     19 C         140.9029  139.8016  169.5654 C.3     1  UNL1        0.0406
     20 N         142.0087  139.1336  170.3276 N.3     1  UNL1       -0.3231
     21 C         139.9591  140.1077  170.6903 C.3     1  UNL1        0.0156
     22 C         139.6027  140.4953  169.2858 C.3     1  UNL1        0.0156
     23 H         142.7487  138.8585  169.6818 H       1  UNL1        0.1188
     24 H         141.6445  138.3062  170.7999 H       1  UNL1        0.1188
     25 C         142.4081  144.3355  162.7030 C.3     1  UNL1        0.0885
     26 C         143.6187  145.0028  163.2854 C.3     1  UNL1        0.0246
     27 C         142.2464  145.4682  163.6730 C.3     1  UNL1        0.0246
     28 C         139.9860  140.1786  159.1180 C.3     1  UNL1        0.1118
     29 C         138.5653  140.3204  158.6581 C.2     1  UNL1        0.2302
     30 O         137.4404  139.9001  159.5571 O.2     1  UNL1       -0.2745
     31 N         138.2694  140.8826  157.2993 N.am    1  UNL1       -0.2758
     32 C         136.8486  141.0245  156.8394 C.3     1  UNL1        0.1149
     33 C         139.3942  141.3029  156.4003 C.3     1  UNL1        0.1149
@<TRIPOS>BOND
     1     1     2    1
     2     2     3   ar
     3     3    14    1
     4    14    15    1
     5    15    16    1
     6    16    17    1
     7    17    19    1
     8    19    20    1
     9    19    21    1
    10    21    22    1
    11    17    18    1
    12     3     4   ar
    13     4     5    1
    14     4     6   ar
    15     6     7   ar
    16     7     8   ar
    17     8    28    1
    18    28    29    1
    19    29    30    2
    20    29    31   am
    21    31    32    1
    22    31    33    1
    23     8     9   ar
    24     9    10   ar
    25    10    11    2
    26    10    12   ar
    27    12    25    1
    28    25    26    1
    29    26    27    1
    30    12    13   ar
    31    13     2   ar
    32    18    14    1
    33    13     7   ar
    34    22    19    1
    35    27    25    1
    36    20    23    1
    37    20    24    1
@<TRIPOS>MOLECULE
*****
 33 37 0 0 0
SMALL
GASTEIGER

@<TRIPOS>ATOM
      1 C         140.5413  142.5862  164.7544 C.3     1  UNL1        0.0339
      2 C         141.7530  142.2542  163.9348 C.ar    1  UNL1        0.0095
      3 C         142.8864  141.4869  164.5485 C.ar    1  UNL1        0.0730
      4 C         144.0980  141.1550  163.7289 C.ar    1  UNL1        0.1531
      5 F         145.2314  140.3877  164.3427 F       1  UNL1       -0.2029
      6 C         144.1763  141.5903  162.2956 C.ar    1  UNL1        0.0320
      7 C         143.0429  142.3576  161.6819 C.ar    1  UNL1        0.0145
      8 C         143.1211  142.7930  160.2486 C.ar    1  UNL1       -0.0069
      9 C         141.9877  143.5603  159.6349 C.ar    1  UNL1        0.0570
     10 C         140.7761  143.8923  160.4545 C.ar    1  UNL1        0.2606
     11 O         139.6427  144.6596  159.8407 O.2     1  UNL1       -0.2670
     12 N         140.6978  143.4569  161.8878 N.ar    1  UNL1       -0.2977
     13 C         141.8312  142.6896  162.5015 C.ar    1  UNL1        0.0594
     14 N         142.8081  141.0516  165.9818 N.pl3   1  UNL1       -0.3059
     15 C         142.7246  139.6356  166.4699 C.3     1  UNL1        0.0909
     16 C         142.6645  139.6646  167.9684 C.3     1  UNL1        0.0244
     17 C         142.7109  141.0985  168.4065 C.3     1  UNL1        0.0344
     18 C         142.7997  141.9556  167.1787 C.3     1  UNL1        0.0921
     19 C         142.6749  141.5890  169.8235 C.3     1  UNL1        0.0406
     20 N         143.4901  140.5206  170.4898 N.3     1  UNL1       -0.3231
     21 C         142.3558  142.4506  171.0091 C.3     1  UNL1        0.0156
     22 C         141.8473  142.8278  169.6493 C.3     1  UNL1        0.0156
     23 H         143.7904  139.8383  169.7936 H       1  UNL1        0.1188
     24 H         142.9252  140.0553  171.2002 H       1  UNL1        0.1188
     25 C         139.4862  143.7889  162.7073 C.3     1  UNL1        0.0885
     26 C         138.0841  143.4757  163.1389 C.3     1  UNL1        0.0246
     27 C         138.7896  144.6769  163.6953 C.3     1  UNL1        0.0246
     28 C         144.3328  142.4611  159.4290 C.3     1  UNL1        0.1118
     29 C         144.2562  141.3979  158.3737 C.2     1  UNL1        0.2302
     30 O         143.1984  140.3373  158.4530 O.2     1  UNL1       -0.2745
     31 N         145.2373  141.3953  157.2391 N.am    1  UNL1       -0.2758
     32 C         145.1606  140.3321  156.1837 C.3     1  UNL1        0.1149
     33 C         146.2950  142.4559  157.1597 C.3     1  UNL1        0.1149
@<TRIPOS>BOND
     1     1     2    1
     2     2     3   ar
     3     3    14    1
     4    14    15    1
     5    15    16    1
     6    16    17    1
     7    17    19    1
     8    19    20    1
     9    19    21    1
    10    21    22    1
    11    17    18    1
    12     3     4   ar
    13     4     5    1
    14     4     6   ar
    15     6     7   ar
    16     7     8   ar
    17     8    28    1
    18    28    29    1
    19    29    30    2
    20    29    31   am
    21    31    32    1
    22    31    33    1
    23     8     9   ar
    24     9    10   ar
    25    10    11    2
    26    10    12   ar
    27    12    25    1
    28    25    26    1
    29    26    27    1
    30    12    13   ar
    31    13     2   ar
    32    18    14    1
    33    13     7   ar
    34    22    19    1
    35    27    25    1
    36    20    23    1
    37    20    24    1
@<TRIPOS>MOLECULE
*****
 33 37 0 0 0
SMALL
GASTEIGER

@<TRIPOS>ATOM
      1 C         139.9851  140.2080  163.8225 C.3     1  UNL1        0.0339
      2 C         140.2251  141.5416  163.1791 C.ar    1  UNL1        0.0095
      3 C         140.7896  142.6729  163.9861 C.ar    1  UNL1        0.0730
      4 C         141.0296  144.0065  163.3427 C.ar    1  UNL1        0.1531
      5 F         141.5942  145.1379  164.1498 F       1  UNL1       -0.2029
      6 C         140.7050  144.2088  161.8924 C.ar    1  UNL1        0.0320
      7 C         140.1404  143.0775  161.0854 C.ar    1  UNL1        0.0145
      8 C         139.8157  143.2797  159.6349 C.ar    1  UNL1       -0.0069
      9 C         139.2511  142.1484  158.8279 C.ar    1  UNL1        0.0570
     10 C         139.0112  140.8148  159.4713 C.ar    1  UNL1        0.2606
     11 O         138.4466  139.6835  158.6642 O.2     1  UNL1       -0.2670
     12 N         139.3358  140.6125  160.9216 N.ar    1  UNL1       -0.2977
     13 C         139.9004  141.7439  161.7287 C.ar    1  UNL1        0.0594
     14 N         141.1143  142.4707  165.4366 N.pl3   1  UNL1       -0.3059
     15 C         142.4634  142.1342  165.9995 C.3     1  UNL1        0.0909
     16 C         142.3298  142.0250  167.4895 C.3     1  UNL1        0.0244
     17 C         140.8981  142.2940  167.8475 C.3     1  UNL1        0.0344
     18 C         140.1470  142.5695  166.5787 C.3     1  UNL1        0.0921
     19 C         140.3193  142.2885  169.2313 C.3     1  UNL1        0.0406
     20 N         139.9525  140.8394  169.3544 N.3     1  UNL1       -0.3231
     21 C         139.8680  142.7864  170.5723 C.3     1  UNL1        0.0156
     22 C         140.4853  143.7358  169.5887 C.3     1  UNL1        0.0156
     23 H         140.2046  140.3506  168.4954 H       1  UNL1        0.1188
     24 H         138.9481  140.7550  169.5113 H       1  UNL1        0.1188
     25 C         139.0959  139.2789  161.5650 C.3     1  UNL1        0.0885
     26 C         139.5973  137.9270  161.9783 C.3     1  UNL1        0.0246
     27 C         138.1789  138.3211  162.2661 C.3     1  UNL1        0.0246
     28 C         140.0557  144.6133  158.9915 C.3     1  UNL1        0.1118
     29 C         141.2163  144.7985  158.0596 C.2     1  UNL1        0.2302
     30 O         142.6143  144.8405  158.6018 O.2     1  UNL1       -0.2745
     31 N         140.9791  144.9416  156.5854 N.am    1  UNL1       -0.2758
     32 C         142.1399  145.1268  155.6534 C.3     1  UNL1        0.1149
     33 C         139.5812  144.8996  156.0431 C.3     1  UNL1        0.1149
@<TRIPOS>BOND
     1     1     2    1
     2     2     3   ar
     3     3    14    1
     4    14    15    1
     5    15    16    1
     6    16    17    1
     7    17    19    1
     8    19    20    1
     9    19    21    1
    10    21    22    1
    11    17    18    1
    12     3     4   ar
    13     4     5    1
    14     4     6   ar
    15     6     7   ar
    16     7     8   ar
    17     8    28    1
    18    28    29    1
    19    29    30    2
    20    29    31   am
    21    31    32    1
    22    31    33    1
    23     8     9   ar
    24     9    10   ar
    25    10    11    2
    26    10    12   ar
    27    12    25    1
    28    25    26    1
    29    26    27    1
    30    12    13   ar
    31    13     2   ar
    32    18    14    1
    33    13     7   ar
    34    22    19    1
    35    27    25    1
    36    20    23    1
    37    20    24    1
@<TRIPOS>MOLECULE
*****
 33 37 0 0 0
SMALL
GASTEIGER

@<TRIPOS>ATOM
      1 C         141.7885  140.4210  161.8039 C.3     1  UNL1        0.0339
      2 C         140.8265  140.7111  162.9177 C.ar    1  UNL1        0.0095
      3 C         139.5599  141.4642  162.6376 C.ar    1  UNL1        0.0730
      4 C         138.5979  141.7544  163.7513 C.ar    1  UNL1        0.1531
      5 F         137.3313  142.5075  163.4711 F       1  UNL1       -0.2029
      6 C         138.9025  141.2914  165.1451 C.ar    1  UNL1        0.0320
      7 C         140.1691  140.5382  165.4252 C.ar    1  UNL1        0.0145
      8 C         140.4737  140.0752  166.8191 C.ar    1  UNL1       -0.0069
      9 C         141.7403  139.3220  167.0992 C.ar    1  UNL1        0.0570
     10 C         142.7023  139.0319  165.9855 C.ar    1  UNL1        0.2606
     11 O         143.9690  138.2787  166.2657 O.2     1  UNL1       -0.2670
     12 N         142.3977  139.4949  164.5917 N.ar    1  UNL1       -0.2977
     13 C         141.1311  140.2481  164.3115 C.ar    1  UNL1        0.0594
     14 N         139.2553  141.9273  161.2437 N.pl3   1  UNL1       -0.3059
     15 C         139.6872  143.2271  160.6323 C.3     1  UNL1        0.0909
     16 C         139.1642  143.2750  159.2272 C.3     1  UNL1        0.0244
     17 C         138.4089  142.0047  158.9703 C.3     1  UNL1        0.0344
     18 C         138.4652  141.1718  160.2165 C.3     1  UNL1        0.0921
     19 C         137.7185  141.6327  157.6916 C.3     1  UNL1        0.0406
     20 N         137.3048  140.2284  158.0181 N.3     1  UNL1       -0.3231
     21 C         137.1719  141.7484  156.2996 C.3     1  UNL1        0.0156
     22 C         137.8926  142.9078  156.9211 C.3     1  UNL1        0.0156
     23 H         137.6136  139.9935  158.9614 H       1  UNL1        0.1188
     24 H         137.7302  139.5847  157.3509 H       1  UNL1        0.1188
     25 C         143.3597  139.2048  163.4779 C.3     1  UNL1        0.0885
     26 C         143.8024  138.3381  162.3366 C.3     1  UNL1        0.0246
     27 C         144.5832  139.5690  162.6903 C.3     1  UNL1        0.0246
     28 C         139.5117  140.3653  167.9328 C.3     1  UNL1        0.1118
     29 C         140.0212  140.5786  169.3274 C.2     1  UNL1        0.2302
     30 O         140.0536  139.4346  170.2972 O.2     1  UNL1       -0.2745
     31 N         140.4981  141.9358  169.7523 N.am    1  UNL1       -0.2758
     32 C         141.0076  142.1490  171.1470 C.3     1  UNL1        0.1149
     33 C         140.4657  143.0797  168.7826 C.3     1  UNL1        0.1149
@<TRIPOS>BOND
     1     1     2    1
     2     2     3   ar
     3     3    14    1
     4    14    15    1
     5    15    16    1
     6    16    17    1
     7    17    19    1
     8    19    20    1
     9    19    21    1
    10    21    22    1
    11    17    18    1
    12     3     4   ar
    13     4     5    1
    14     4     6   ar
    15     6     7   ar
    16     7     8   ar
    17     8    28    1
    18    28    29    1
    19    29    30    2
    20    29    31   am
    21    31    32    1
    22    31    33    1
    23     8     9   ar
    24     9    10   ar
    25    10    11    2
    26    10    12   ar
    27    12    25    1
    28    25    26    1
    29    26    27    1
    30    12    13   ar
    31    13     2   ar
    32    18    14    1
    33    13     7   ar
    34    22    19    1
    35    27    25    1
    36    20    23    1
    37    20    24    1
@<TRIPOS>MOLECULE
*****
 33 37 0 0 0
SMALL
GASTEIGER

@<TRIPOS>ATOM
      1 C         141.9106  140.7955  161.4861 C.3     1  UNL1        0.0339
      2 C         141.4613  141.6623  162.6249 C.ar    1  UNL1        0.0095
      3 C         140.7291  142.9422  162.3498 C.ar    1  UNL1        0.0730
      4 C         140.2798  143.8090  163.4886 C.ar    1  UNL1        0.1531
      5 F         139.5476  145.0889  163.2133 F       1  UNL1       -0.2029
      6 C         140.5628  143.3959  164.9025 C.ar    1  UNL1        0.0320
      7 C         141.2950  142.1160  165.1776 C.ar    1  UNL1        0.0145
      8 C         141.5779  141.7029  166.5917 C.ar    1  UNL1       -0.0069
      9 C         142.3101  140.4230  166.8668 C.ar    1  UNL1        0.0570
     10 C         142.7594  139.5562  165.7280 C.ar    1  UNL1        0.2606
     11 O         143.4917  138.2763  166.0033 O.2     1  UNL1       -0.2670
     12 N         142.4765  139.9693  164.3141 N.ar    1  UNL1       -0.2977
     13 C         141.7443  141.2492  164.0389 C.ar    1  UNL1        0.0594
     14 N         140.4462  143.3553  160.9358 N.pl3   1  UNL1       -0.3059
     15 C         139.3128  142.8654  160.0841 C.3     1  UNL1        0.0909
     16 C         139.4130  143.5381  158.7472 C.3     1  UNL1        0.0244
     17 C         140.6084  144.4439  158.7726 C.3     1  UNL1        0.0344
     18 C         141.2469  144.3309  160.1252 C.3     1  UNL1        0.0921
     19 C         141.0821  145.3106  157.6437 C.3     1  UNL1        0.0406
     20 N         142.3307  145.8745  158.2544 N.3     1  UNL1       -0.3231
     21 C         141.1222  145.9813  156.3026 C.3     1  UNL1        0.0156
     22 C         139.9981  145.0475  156.6409 C.3     1  UNL1        0.0156
     23 H         142.4464  145.5019  159.1968 H       1  UNL1        0.1188
     24 H         142.2590  146.8911  158.2971 H       1  UNL1        0.1188
     25 C         142.9258  139.1025  163.1753 C.3     1  UNL1        0.0885
     26 C         142.6505  138.0039  162.1919 C.3     1  UNL1        0.0246
     27 C         143.9793  138.6999  162.1864 C.3     1  UNL1        0.0246
     28 C         141.1286  142.5696  167.7304 C.3     1  UNL1        0.1118
     29 C         141.6589  142.3268  169.1124 C.2     1  UNL1        0.2302
     30 O         142.9642  142.9348  169.5325 O.2     1  UNL1       -0.2745
     31 N         140.8838  141.4759  170.0743 N.am    1  UNL1       -0.2758
     32 C         141.4141  141.2330  171.4563 C.3     1  UNL1        0.1149
     33 C         139.5785  140.8678  169.6542 C.3     1  UNL1        0.1149
@<TRIPOS>BOND
     1     1     2    1
     2     2     3   ar
     3     3    14    1
     4    14    15    1
     5    15    16    1
     6    16    17    1
     7    17    19    1
     8    19    20    1
     9    19    21    1
    10    21    22    1
    11    17    18    1
    12     3     4   ar
    13     4     5    1
    14     4     6   ar
    15     6     7   ar
    16     7     8   ar
    17     8    28    1
    18    28    29    1
    19    29    30    2
    20    29    31   am
    21    31    32    1
    22    31    33    1
    23     8     9   ar
    24     9    10   ar
    25    10    11    2
    26    10    12   ar
    27    12    25    1
    28    25    26    1
    29    26    27    1
    30    12    13   ar
    31    13     2   ar
    32    18    14    1
    33    13     7   ar
    34    22    19    1
    35    27    25    1
    36    20    23    1
    37    20    24    1
