@<TRIPOS>MOLECULE
*****
 34 38 0 0 0
SMALL
GASTEIGER

@<TRIPOS>ATOM
      1 C         140.6638  142.2829  161.8773 C.ar    1  UNL1        0.1458
      2 N         141.6982  143.0514  161.1095 N.ar    1  UNL1       -0.2249
      3 C         142.5683  142.3468  160.1113 C.ar    1  UNL1        0.1260
      4 C         143.6648  142.8371  159.2128 C.ar    1  UNL1        0.1212
      5 N         144.1783  141.6669  158.4272 N.ar    1  UNL1       -0.2265
      6 N         143.3992  140.4535  158.8402 N.ar    1  UNL1       -0.1586
      7 C         142.4041  140.8737  159.8811 C.ar    1  UNL1        0.1762
      8 C         141.3698  140.1052  160.6489 C.ar    1  UNL1        0.2829
      9 O         141.2056  138.6321  160.4186 O.2     1  UNL1       -0.2652
     10 N         140.4996  140.8099  161.6470 N.ar    1  UNL1       -0.2793
     11 C         141.7527  142.9898  164.5818 C.3     1  UNL1        0.0311
     12 C         140.3380  143.3410  164.2277 C.ar    1  UNL1       -0.0189
     13 C         139.4679  144.0457  165.2259 C.ar    1  UNL1       -0.0042
     14 C         138.0532  144.3969  164.8717 C.ar    1  UNL1       -0.0003
     15 C         137.5087  144.0434  163.5194 C.ar    1  UNL1        0.0001
     16 C         138.3789  143.3388  162.5213 C.ar    1  UNL1        0.0027
     17 C         139.7936  142.9876  162.8755 C.ar    1  UNL1        0.0303
     18 C         145.2779  141.7038  157.4077 C.ar    1  UNL1        0.0830
     19 C         145.2372  140.7795  156.2269 C.ar    1  UNL1        0.0200
     20 C         146.3368  140.8164  155.2074 C.ar    1  UNL1        0.0129
     21 C         147.4771  141.7775  155.3685 C.ar    1  UNL1        0.0578
     22 CL        148.5767  141.8143  154.3489 Cl      1  UNL1       -0.0822
     23 C         147.5179  142.7017  156.5492 C.ar    1  UNL1        0.0129
     24 C         146.4182  142.6648  157.5688 C.ar    1  UNL1        0.0200
     25 C         139.4653  140.0414  162.4149 C.3     1  UNL1        0.1119
     26 C         139.5893  139.8970  163.9027 C.3     1  UNL1        0.0388
     27 C         138.3815  140.0666  164.7760 C.3     1  UNL1        0.0048
     28 C         138.5055  139.9223  166.2638 C.3     1  UNL1        0.0174
     29 C         139.8373  139.6084  166.8785 C.3     1  UNL1        0.0720
     30 N         141.0451  139.4388  166.0053 N.3     1  UNL1       -0.2739
     31 C         140.9210  139.5831  164.5173 C.3     1  UNL1        0.0739
     32 C         142.3768  139.1248  166.6199 C.3     1  UNL1        0.0576
     33 C         143.4182  138.3974  165.8224 C.3     1  UNL1        0.0173
     34 C         142.6671  139.5384  168.0323 C.3     1  UNL1        0.0173
@<TRIPOS>BOND
     1    11    12    1
     2    12    13   ar
     3    13    14   ar
     4    14    15   ar
     5    15    16   ar
     6    16    17   ar
     7    17     1    1
     8     1     2   ar
     9     2     3   ar
    10     3     4   ar
    11     4     5   ar
    12     5    18    1
    13    18    19   ar
    14    19    20   ar
    15    20    21   ar
    16    21    22    1
    17    21    23   ar
    18    23    24   ar
    19     5     6   ar
    20     6     7   ar
    21     7     8   ar
    22     8     9    2
    23     8    10   ar
    24    10    25    1
    25    25    26    1
    26    26    27    1
    27    27    28    1
    28    28    29    1
    29    29    30    1
    30    30    32    1
    31    32    33    1
    32    32    34    1
    33    30    31    1
    34    17    12   ar
    35    10     1   ar
    36    31    26    1
    37     7     3   ar
    38    24    18   ar
@<TRIPOS>MOLECULE
*****
 34 38 0 0 0
SMALL
GASTEIGER

@<TRIPOS>ATOM
      1 C         141.2998  143.2533  162.5179 C.ar    1  UNL1        0.1458
      2 N         141.6014  142.9368  161.0830 N.ar    1  UNL1       -0.2249
      3 C         140.4813  142.7874  160.0966 C.ar    1  UNL1        0.1260
      4 C         140.4711  142.4799  158.6285 C.ar    1  UNL1        0.1212
      5 N         139.0432  142.4570  158.1696 N.ar    1  UNL1       -0.2265
      6 N         138.1709  142.7503  159.3541 N.ar    1  UNL1       -0.1586
      7 C         139.0596  142.9545  160.5451 C.ar    1  UNL1        0.1762
      8 C         138.7582  143.2710  161.9799 C.ar    1  UNL1        0.2829
      9 O         137.3366  143.4382  162.4284 O.2     1  UNL1       -0.2652
     10 N         139.8783  143.4204  162.9663 N.ar    1  UNL1       -0.2793
     11 C         142.4518  140.8290  163.8579 C.3     1  UNL1        0.0311
     12 C         142.9960  142.1906  164.1744 C.ar    1  UNL1       -0.0189
     13 C         144.1161  142.3400  165.1608 C.ar    1  UNL1       -0.0042
     14 C         144.6601  143.7015  165.4772 C.ar    1  UNL1       -0.0003
     15 C         144.0841  144.9137  164.8073 C.ar    1  UNL1        0.0001
     16 C         142.9640  144.7643  163.8209 C.ar    1  UNL1        0.0027
     17 C         142.4200  143.4027  163.5044 C.ar    1  UNL1        0.0303
     18 C         138.5706  142.1880  156.7717 C.ar    1  UNL1        0.0830
     19 C         139.4080  141.3592  155.8433 C.ar    1  UNL1        0.0200
     20 C         138.9352  141.0903  154.4453 C.ar    1  UNL1        0.0129
     21 C         137.6252  141.6500  153.9757 C.ar    1  UNL1        0.0578
     22 CL        137.1526  141.3810  152.5778 Cl      1  UNL1       -0.0822
     23 C         136.7878  142.4787  154.9042 C.ar    1  UNL1        0.0129
     24 C         137.2605  142.7477  156.3021 C.ar    1  UNL1        0.0200
     25 C         139.5767  143.7370  164.4013 C.3     1  UNL1        0.1119
     26 C         139.6840  142.6646  165.4444 C.3     1  UNL1        0.0388
     27 C         140.4336  142.9281  166.7167 C.3     1  UNL1        0.0048
     28 C         140.5409  141.8556  167.7599 C.3     1  UNL1        0.0174
     29 C         139.8985  140.5196  167.5309 C.3     1  UNL1        0.0720
     30 N         139.1488  140.2560  166.2587 N.3     1  UNL1       -0.2739
     31 C         139.0416  141.3286  165.2155 C.3     1  UNL1        0.0739
     32 C         138.5065  138.9200  166.0297 C.3     1  UNL1        0.0576
     33 C         138.8268  138.1362  164.7916 C.3     1  UNL1        0.0173
     34 C         137.5438  138.3679  167.0389 C.3     1  UNL1        0.0173
@<TRIPOS>BOND
     1    11    12    1
     2    12    13   ar
     3    13    14   ar
     4    14    15   ar
     5    15    16   ar
     6    16    17   ar
     7    17     1    1
     8     1     2   ar
     9     2     3   ar
    10     3     4   ar
    11     4     5   ar
    12     5    18    1
    13    18    19   ar
    14    19    20   ar
    15    20    21   ar
    16    21    22    1
    17    21    23   ar
    18    23    24   ar
    19     5     6   ar
    20     6     7   ar
    21     7     8   ar
    22     8     9    2
    23     8    10   ar
    24    10    25    1
    25    25    26    1
    26    26    27    1
    27    27    28    1
    28    28    29    1
    29    29    30    1
    30    30    32    1
    31    32    33    1
    32    32    34    1
    33    30    31    1
    34    17    12   ar
    35    10     1   ar
    36    31    26    1
    37     7     3   ar
    38    24    18   ar
@<TRIPOS>MOLECULE
*****
 34 38 0 0 0
SMALL
GASTEIGER

@<TRIPOS>ATOM
      1 C         141.0218  142.2468  162.0367 C.ar    1  UNL1        0.1458
      2 N         141.7532  143.0070  160.9702 N.ar    1  UNL1       -0.2249
      3 C         142.7067  142.2918  160.0596 C.ar    1  UNL1        0.1260
      4 C         143.5633  142.7723  158.9259 C.ar    1  UNL1        0.1212
      5 N         144.3148  141.5940  158.3810 N.ar    1  UNL1       -0.2265
      6 N         143.9227  140.3853  159.1780 N.ar    1  UNL1       -0.1586
      7 C         142.9288  140.8165  160.2155 C.ar    1  UNL1        0.1762
      8 C         142.1974  140.0564  161.2819 C.ar    1  UNL1        0.2829
      9 O         142.4195  138.5812  161.4378 O.2     1  UNL1       -0.2652
     10 N         141.2439  140.7717  162.1925 N.ar    1  UNL1       -0.2793
     11 C         142.0436  143.6136  164.5041 C.3     1  UNL1        0.0311
     12 C         140.5791  143.6455  164.1811 C.ar    1  UNL1       -0.0189
     13 C         139.6256  144.3606  165.0917 C.ar    1  UNL1       -0.0042
     14 C         138.1611  144.3925  164.7686 C.ar    1  UNL1       -0.0003
     15 C         137.6502  143.7091  163.5350 C.ar    1  UNL1        0.0001
     16 C         138.6038  142.9939  162.6244 C.ar    1  UNL1        0.0027
     17 C         140.0682  142.9621  162.9474 C.ar    1  UNL1        0.0303
     18 C         145.2876  141.6199  157.2395 C.ar    1  UNL1        0.0830
     19 C         146.4596  142.5554  157.2740 C.ar    1  UNL1        0.0200
     20 C         147.4323  142.5812  156.1324 C.ar    1  UNL1        0.0129
     21 C         147.2332  141.6716  154.9565 C.ar    1  UNL1        0.0578
     22 CL        148.2060  141.6974  153.8150 Cl      1  UNL1       -0.0822
     23 C         146.0612  140.7360  154.9220 C.ar    1  UNL1        0.0129
     24 C         145.0884  140.7102  156.0636 C.ar    1  UNL1        0.0200
     25 C         140.5125  140.0115  163.2590 C.3     1  UNL1        0.1119
     26 C         141.0912  139.9110  164.6392 C.3     1  UNL1        0.0388
     27 C         142.3565  139.1383  164.8675 C.3     1  UNL1        0.0048
     28 C         142.9352  139.0378  166.2476 C.3     1  UNL1        0.0174
     29 C         142.2487  139.7099  167.3996 C.3     1  UNL1        0.0720
     30 N         140.9834  140.4826  167.1714 N.3     1  UNL1       -0.2739
     31 C         140.4047  140.5831  165.7911 C.3     1  UNL1        0.0739
     32 C         140.2969  141.1547  168.3233 C.3     1  UNL1        0.0576
     33 C         140.5043  142.6198  168.5687 C.3     1  UNL1        0.0173
     34 C         139.4029  140.3615  169.2298 C.3     1  UNL1        0.0173
@<TRIPOS>BOND
     1    11    12    1
     2    12    13   ar
     3    13    14   ar
     4    14    15   ar
     5    15    16   ar
     6    16    17   ar
     7    17     1    1
     8     1     2   ar
     9     2     3   ar
    10     3     4   ar
    11     4     5   ar
    12     5    18    1
    13    18    19   ar
    14    19    20   ar
    15    20    21   ar
    16    21    22    1
    17    21    23   ar
    18    23    24   ar
    19     5     6   ar
    20     6     7   ar
    21     7     8   ar
    22     8     9    2
    23     8    10   ar
    24    10    25    1
    25    25    26    1
    26    26    27    1
    27    27    28    1
    28    28    29    1
    29    29    30    1
    30    30    32    1
    31    32    33    1
    32    32    34    1
    33    30    31    1
    34    17    12   ar
    35    10     1   ar
    36    31    26    1
    37     7     3   ar
    38    24    18   ar
@<TRIPOS>MOLECULE
*****
 34 38 0 0 0
SMALL
GASTEIGER

@<TRIPOS>ATOM
      1 C         141.3439  142.2956  162.2937 C.ar    1  UNL1        0.1458
      2 N         141.7835  141.6667  161.0048 N.ar    1  UNL1       -0.2249
      3 C         140.7704  141.0455  160.0896 C.ar    1  UNL1        0.1260
      4 C         140.9044  140.3567  158.7638 C.ar    1  UNL1        0.1212
      5 N         139.5345  139.9386  158.3182 N.ar    1  UNL1       -0.2265
      6 N         138.5539  140.3690  159.3685 N.ar    1  UNL1       -0.1586
      7 C         139.3177  141.0531  160.4633 C.ar    1  UNL1        0.1762
      8 C         138.8781  141.6820  161.7522 C.ar    1  UNL1        0.2829
      9 O         137.4255  141.6897  162.1259 O.2     1  UNL1       -0.2652
     10 N         139.8913  142.3032  162.6674 N.ar    1  UNL1       -0.2793
     11 C         142.8054  140.5963  164.2877 C.3     1  UNL1        0.0311
     12 C         143.0879  142.0672  164.2060 C.ar    1  UNL1       -0.0189
     13 C         144.1010  142.6885  165.1212 C.ar    1  UNL1       -0.0042
     14 C         144.3833  144.1594  165.0394 C.ar    1  UNL1       -0.0003
     15 C         143.6525  145.0091  164.0424 C.ar    1  UNL1        0.0001
     16 C         142.6394  144.3878  163.1272 C.ar    1  UNL1        0.0027
     17 C         142.3571  142.9169  163.2090 C.ar    1  UNL1        0.0303
     18 C         139.2033  139.2169  157.0456 C.ar    1  UNL1        0.0830
     19 C         138.4233  139.9127  155.9699 C.ar    1  UNL1        0.0200
     20 C         138.0921  139.1909  154.6973 C.ar    1  UNL1        0.0129
     21 C         138.5410  137.7732  154.5005 C.ar    1  UNL1        0.0578
     22 CL        138.2099  137.0515  153.2279 Cl      1  UNL1       -0.0822
     23 C         139.3211  137.0774  155.5762 C.ar    1  UNL1        0.0129
     24 C         139.6523  137.7992  156.8488 C.ar    1  UNL1        0.0200
     25 C         139.4516  142.9321  163.9563 C.3     1  UNL1        0.1119
     26 C         139.6175  142.1887  165.2484 C.3     1  UNL1        0.0388
     27 C         139.0718  140.7986  165.3894 C.3     1  UNL1        0.0048
     28 C         139.2377  140.0552  166.6815 C.3     1  UNL1        0.0174
     29 C         139.9493  140.7019  167.8329 C.3     1  UNL1        0.0720
     30 N         140.4950  142.0920  167.6920 N.3     1  UNL1       -0.2739
     31 C         140.3291  142.8354  166.3997 C.3     1  UNL1        0.0739
     32 C         141.2066  142.7386  168.8433 C.3     1  UNL1        0.0576
     33 C         142.6606  142.4566  169.0801 C.3     1  UNL1        0.0173
     34 C         140.4639  143.6672  169.7578 C.3     1  UNL1        0.0173
@<TRIPOS>BOND
     1    11    12    1
     2    12    13   ar
     3    13    14   ar
     4    14    15   ar
     5    15    16   ar
     6    16    17   ar
     7    17     1    1
     8     1     2   ar
     9     2     3   ar
    10     3     4   ar
    11     4     5   ar
    12     5    18    1
    13    18    19   ar
    14    19    20   ar
    15    20    21   ar
    16    21    22    1
    17    21    23   ar
    18    23    24   ar
    19     5     6   ar
    20     6     7   ar
    21     7     8   ar
    22     8     9    2
    23     8    10   ar
    24    10    25    1
    25    25    26    1
    26    26    27    1
    27    27    28    1
    28    28    29    1
    29    29    30    1
    30    30    32    1
    31    32    33    1
    32    32    34    1
    33    30    31    1
    34    17    12   ar
    35    10     1   ar
    36    31    26    1
    37     7     3   ar
    38    24    18   ar
@<TRIPOS>MOLECULE
*****
 34 38 0 0 0
SMALL
GASTEIGER

@<TRIPOS>ATOM
      1 C         141.5172  143.1481  162.6492 C.ar    1  UNL1        0.1458
      2 N         141.5394  143.2702  161.1543 N.ar    1  UNL1       -0.2249
      3 C         142.7941  142.9558  160.3948 C.ar    1  UNL1        0.1260
      4 C         143.1144  142.9851  158.9297 C.ar    1  UNL1        0.1212
      5 N         144.5448  142.5668  158.7595 N.ar    1  UNL1       -0.2265
      6 N         145.1085  142.2790  160.1195 N.ar    1  UNL1       -0.1586
      7 C         144.0265  142.5194  161.1301 C.ar    1  UNL1        0.1762
      8 C         144.0042  142.3974  162.6250 C.ar    1  UNL1        0.2829
      9 O         145.2366  141.9609  163.3603 O.2     1  UNL1       -0.2652
     10 N         142.7495  142.7117  163.3845 N.ar    1  UNL1       -0.2793
     11 C         139.1707  141.2843  162.5067 C.3     1  UNL1        0.0311
     12 C         139.0892  142.5306  163.3375 C.ar    1  UNL1       -0.0189
     13 C         137.8345  142.8450  164.0971 C.ar    1  UNL1       -0.0042
     14 C         137.7530  144.0912  164.9278 C.ar    1  UNL1       -0.0003
     15 C         138.9262  145.0231  164.9991 C.ar    1  UNL1        0.0001
     16 C         140.1809  144.7087  164.2396 C.ar    1  UNL1        0.0027
     17 C         140.2624  143.4625  163.4088 C.ar    1  UNL1        0.0303
     18 C         145.2821  142.4557  157.4580 C.ar    1  UNL1        0.0830
     19 C         146.7560  142.7290  157.4052 C.ar    1  UNL1        0.0200
     20 C         147.4933  142.6180  156.1036 C.ar    1  UNL1        0.0129
     21 C         146.7566  142.2337  154.8547 C.ar    1  UNL1        0.0578
     22 CL        147.4939  142.1226  153.5532 Cl      1  UNL1       -0.0822
     23 C         145.2827  141.9604  154.9075 C.ar    1  UNL1        0.0129
     24 C         144.5454  142.0714  156.2091 C.ar    1  UNL1        0.0200
     25 C         142.7273  142.5896  164.8794 C.3     1  UNL1        0.1119
     26 C         141.7451  141.6700  165.5423 C.3     1  UNL1        0.0388
     27 C         141.0203  142.1122  166.7789 C.3     1  UNL1        0.0048
     28 C         140.0381  141.1926  167.4418 C.3     1  UNL1        0.0174
     29 C         139.7806  139.8307  166.8681 C.3     1  UNL1        0.0720
     30 N         140.5054  139.3885  165.6315 N.3     1  UNL1       -0.2739
     31 C         141.4876  140.3082  164.9686 C.3     1  UNL1        0.0739
     32 C         140.2479  138.0266  165.0579 C.3     1  UNL1        0.0576
     33 C         138.8666  137.4438  165.1005 C.3     1  UNL1        0.0173
     34 C         141.3720  137.2477  164.4416 C.3     1  UNL1        0.0173
@<TRIPOS>BOND
     1    11    12    1
     2    12    13   ar
     3    13    14   ar
     4    14    15   ar
     5    15    16   ar
     6    16    17   ar
     7    17     1    1
     8     1     2   ar
     9     2     3   ar
    10     3     4   ar
    11     4     5   ar
    12     5    18    1
    13    18    19   ar
    14    19    20   ar
    15    20    21   ar
    16    21    22    1
    17    21    23   ar
    18    23    24   ar
    19     5     6   ar
    20     6     7   ar
    21     7     8   ar
    22     8     9    2
    23     8    10   ar
    24    10    25    1
    25    25    26    1
    26    26    27    1
    27    27    28    1
    28    28    29    1
    29    29    30    1
    30    30    32    1
    31    32    33    1
    32    32    34    1
    33    30    31    1
    34    17    12   ar
    35    10     1   ar
    36    31    26    1
    37     7     3   ar
    38    24    18   ar
@<TRIPOS>MOLECULE
*****
 34 38 0 0 0
SMALL
GASTEIGER

@<TRIPOS>ATOM
      1 C         140.4338  141.2344  162.3084 C.ar    1  UNL1        0.1458
      2 N         140.1856  141.1188  160.8335 N.ar    1  UNL1       -0.2249
      3 C         140.7463  139.9575  160.0675 C.ar    1  UNL1        0.1260
      4 C         140.6680  139.5795  158.6180 C.ar    1  UNL1        0.1212
      5 N         141.4284  138.3001  158.4310 N.ar    1  UNL1       -0.2265
      6 N         141.9766  137.8874  159.7648 N.ar    1  UNL1       -0.1586
      7 C         141.5551  138.9117  160.7762 C.ar    1  UNL1        0.1762
      8 C         141.8032  139.0274  162.2511 C.ar    1  UNL1        0.2829
      9 O         142.6119  137.9816  162.9598 O.2     1  UNL1       -0.2652
     10 N         141.2425  140.1887  163.0171 N.ar    1  UNL1       -0.2793
     11 C         137.5321  141.2691  163.0692 C.3     1  UNL1        0.0311
     12 C         138.4222  142.4132  163.4549 C.ar    1  UNL1       -0.0189
     13 C         137.8615  143.5745  164.2210 C.ar    1  UNL1       -0.0042
     14 C         138.7517  144.7186  164.6066 C.ar    1  UNL1       -0.0003
     15 C         140.2026  144.7013  164.2263 C.ar    1  UNL1        0.0001
     16 C         140.7632  143.5399  163.4602 C.ar    1  UNL1        0.0027
     17 C         139.8730  142.3958  163.0745 C.ar    1  UNL1        0.0303
     18 C         141.6089  137.5628  157.1372 C.ar    1  UNL1        0.0830
     19 C         140.4109  137.1689  156.3250 C.ar    1  UNL1        0.0200
     20 C         140.5915  136.4316  155.0312 C.ar    1  UNL1        0.0129
     21 C         141.9700  136.0882  154.5496 C.ar    1  UNL1        0.0578
     22 CL        142.1504  135.3510  153.2558 Cl      1  UNL1       -0.0822
     23 C         143.1679  136.4822  155.3618 C.ar    1  UNL1        0.0129
     24 C         142.9873  137.2195  156.6556 C.ar    1  UNL1        0.0200
     25 C         141.4906  140.3043  164.4920 C.3     1  UNL1        0.1119
     26 C         140.4283  139.8890  165.4660 C.3     1  UNL1        0.0388
     27 C         139.3577  138.9271  165.0433 C.3     1  UNL1        0.0048
     28 C         138.2954  138.5117  166.0174 C.3     1  UNL1        0.0174
     29 C         138.3036  139.0582  167.4143 C.3     1  UNL1        0.0720
     30 N         139.3742  140.0201  167.8371 N.3     1  UNL1       -0.2739
     31 C         140.4365  140.4354  166.8629 C.3     1  UNL1        0.0739
     32 C         139.3824  140.5666  169.2340 C.3     1  UNL1        0.0576
     33 C         138.3707  140.0879  170.2325 C.3     1  UNL1        0.0173
     34 C         140.4024  141.5919  169.6322 C.3     1  UNL1        0.0173
@<TRIPOS>BOND
     1    11    12    1
     2    12    13   ar
     3    13    14   ar
     4    14    15   ar
     5    15    16   ar
     6    16    17   ar
     7    17     1    1
     8     1     2   ar
     9     2     3   ar
    10     3     4   ar
    11     4     5   ar
    12     5    18    1
    13    18    19   ar
    14    19    20   ar
    15    20    21   ar
    16    21    22    1
    17    21    23   ar
    18    23    24   ar
    19     5     6   ar
    20     6     7   ar
    21     7     8   ar
    22     8     9    2
    23     8    10   ar
    24    10    25    1
    25    25    26    1
    26    26    27    1
    27    27    28    1
    28    28    29    1
    29    29    30    1
    30    30    32    1
    31    32    33    1
    32    32    34    1
    33    30    31    1
    34    17    12   ar
    35    10     1   ar
    36    31    26    1
    37     7     3   ar
    38    24    18   ar
@<TRIPOS>MOLECULE
*****
 34 38 0 0 0
SMALL
GASTEIGER

@<TRIPOS>ATOM
      1 C         140.2017  138.3858  163.0117 C.ar    1  UNL1        0.1458
      2 N         139.5246  138.4624  161.6753 N.ar    1  UNL1       -0.2249
      3 C         140.3343  138.3568  160.4171 C.ar    1  UNL1        0.1260
      4 C         139.9477  138.3973  158.9684 C.ar    1  UNL1        0.1212
      5 N         141.1956  138.2401  158.1511 N.ar    1  UNL1       -0.2265
      6 N         142.3535  138.1025  159.0947 N.ar    1  UNL1       -0.1586
      7 C         141.8212  138.1746  160.4952 C.ar    1  UNL1        0.1762
      8 C         142.4983  138.0980  161.8315 C.ar    1  UNL1        0.2829
      9 O         143.9851  137.9158  161.9096 O.2     1  UNL1       -0.2652
     10 N         141.6885  138.2036  163.0897 N.ar    1  UNL1       -0.2793
     11 C         139.4704  141.0828  164.1029 C.3     1  UNL1        0.0311
     12 C         139.0263  139.8398  164.8156 C.ar    1  UNL1       -0.0189
     13 C         138.2165  139.9454  166.0738 C.ar    1  UNL1       -0.0042
     14 C         137.7724  138.7024  166.7864 C.ar    1  UNL1       -0.0003
     15 C         138.1381  137.3539  166.2408 C.ar    1  UNL1        0.0001
     16 C         138.9479  137.2483  164.9825 C.ar    1  UNL1        0.0027
     17 C         139.3919  138.4913  164.2700 C.ar    1  UNL1        0.0303
     18 C         141.2722  138.2234  156.6531 C.ar    1  UNL1        0.0830
     19 C         141.3782  136.9179  155.9221 C.ar    1  UNL1        0.0200
     20 C         141.4548  136.9013  154.4241 C.ar    1  UNL1        0.0129
     21 C         141.4254  138.1900  153.6572 C.ar    1  UNL1        0.0578
     22 CL        141.5020  138.1733  152.1592 Cl      1  UNL1       -0.0822
     23 C         141.3194  139.4955  154.3883 C.ar    1  UNL1        0.0129
     24 C         141.2428  139.5121  155.8862 C.ar    1  UNL1        0.0200
     25 C         142.3657  138.1269  164.4260 C.3     1  UNL1        0.1119
     26 C         142.5891  139.3757  165.2263 C.3     1  UNL1        0.0388
     27 C         142.0712  139.4691  166.6310 C.3     1  UNL1        0.0048
     28 C         142.2946  140.7178  167.4313 C.3     1  UNL1        0.0174
     29 C         143.0361  141.8733  166.8270 C.3     1  UNL1        0.0720
     30 N         143.5541  141.7800  165.4223 N.3     1  UNL1       -0.2739
     31 C         143.3305  140.5311  164.6220 C.3     1  UNL1        0.0739
     32 C         144.2955  142.9355  164.8181 C.3     1  UNL1        0.0576
     33 C         144.8791  143.9971  165.7024 C.3     1  UNL1        0.0173
     34 C         144.4532  143.0293  163.3293 C.3     1  UNL1        0.0173
@<TRIPOS>BOND
     1    11    12    1
     2    12    13   ar
     3    13    14   ar
     4    14    15   ar
     5    15    16   ar
     6    16    17   ar
     7    17     1    1
     8     1     2   ar
     9     2     3   ar
    10     3     4   ar
    11     4     5   ar
    12     5    18    1
    13    18    19   ar
    14    19    20   ar
    15    20    21   ar
    16    21    22    1
    17    21    23   ar
    18    23    24   ar
    19     5     6   ar
    20     6     7   ar
    21     7     8   ar
    22     8     9    2
    23     8    10   ar
    24    10    25    1
    25    25    26    1
    26    26    27    1
    27    27    28    1
    28    28    29    1
    29    29    30    1
    30    30    32    1
    31    32    33    1
    32    32    34    1
    33    30    31    1
    34    17    12   ar
    35    10     1   ar
    36    31    26    1
    37     7     3   ar
    38    24    18   ar
@<TRIPOS>MOLECULE
*****
 34 38 0 0 0
SMALL
GASTEIGER

@<TRIPOS>ATOM
      1 C         140.9965  141.6189  162.2394 C.ar    1  UNL1        0.1458
      2 N         140.2887  141.0290  161.0556 N.ar    1  UNL1       -0.2249
      3 C         140.9765  140.0020  160.2058 C.ar    1  UNL1        0.1260
      4 C         140.5343  139.2492  158.9861 C.ar    1  UNL1        0.1212
      5 N         141.6565  138.3468  158.5662 N.ar    1  UNL1       -0.2265
      6 N         142.7923  138.5419  159.5264 N.ar    1  UNL1       -0.1586
      7 C         142.3720  139.5648  160.5398 C.ar    1  UNL1        0.1762
      8 C         143.0797  140.1547  161.7235 C.ar    1  UNL1        0.2829
      9 O         144.4752  139.7175  162.0575 O.2     1  UNL1       -0.2652
     10 N         142.3919  141.1817  162.5733 N.ar    1  UNL1       -0.2793
     11 C         139.3216  140.7564  164.5740 C.3     1  UNL1        0.0311
     12 C         139.4712  142.2147  164.2565 C.ar    1  UNL1       -0.0189
     13 C         138.7835  143.2418  165.1062 C.ar    1  UNL1       -0.0042
     14 C         138.9331  144.7001  164.7886 C.ar    1  UNL1       -0.0003
     15 C         139.7706  145.1314  163.6213 C.ar    1  UNL1        0.0001
     16 C         140.4583  144.1044  162.7716 C.ar    1  UNL1        0.0027
     17 C         140.3087  142.6460  163.0892 C.ar    1  UNL1        0.0303
     18 C         141.6451  137.4133  157.3922 C.ar    1  UNL1        0.0830
     19 C         142.8211  136.5188  157.1337 C.ar    1  UNL1        0.0200
     20 C         142.8095  135.5853  155.9596 C.ar    1  UNL1        0.0129
     21 C         141.6220  135.5462  155.0440 C.ar    1  UNL1        0.0578
     22 CL        141.6105  134.6126  153.8700 Cl      1  UNL1       -0.0822
     23 C         140.4460  136.4407  155.3025 C.ar    1  UNL1        0.0129
     24 C         140.4575  137.3742  156.4766 C.ar    1  UNL1        0.0200
     25 C         143.0997  141.7716  163.7571 C.3     1  UNL1        0.1119
     26 C         142.9331  141.1551  165.1142 C.3     1  UNL1        0.0388
     27 C         143.1057  139.6757  165.2924 C.3     1  UNL1        0.0048
     28 C         142.9391  139.0593  166.6496 C.3     1  UNL1        0.0174
     29 C         142.5998  139.9222  167.8288 C.3     1  UNL1        0.0720
     30 N         142.4272  141.4015  167.6507 N.3     1  UNL1       -0.2739
     31 C         142.5938  142.0180  166.2934 C.3     1  UNL1        0.0739
     32 C         142.0879  142.2643  168.8299 C.3     1  UNL1        0.0576
     33 C         140.7263  142.8839  168.9388 C.3     1  UNL1        0.0173
     34 C         143.1105  142.5075  169.9002 C.3     1  UNL1        0.0173
@<TRIPOS>BOND
     1    11    12    1
     2    12    13   ar
     3    13    14   ar
     4    14    15   ar
     5    15    16   ar
     6    16    17   ar
     7    17     1    1
     8     1     2   ar
     9     2     3   ar
    10     3     4   ar
    11     4     5   ar
    12     5    18    1
    13    18    19   ar
    14    19    20   ar
    15    20    21   ar
    16    21    22    1
    17    21    23   ar
    18    23    24   ar
    19     5     6   ar
    20     6     7   ar
    21     7     8   ar
    22     8     9    2
    23     8    10   ar
    24    10    25    1
    25    25    26    1
    26    26    27    1
    27    27    28    1
    28    28    29    1
    29    29    30    1
    30    30    32    1
    31    32    33    1
    32    32    34    1
    33    30    31    1
    34    17    12   ar
    35    10     1   ar
    36    31    26    1
    37     7     3   ar
    38    24    18   ar
@<TRIPOS>MOLECULE
*****
 34 38 0 0 0
SMALL
GASTEIGER

@<TRIPOS>ATOM
      1 C         141.7682  140.3416  161.7315 C.ar    1  UNL1        0.1458
      2 N         142.4901  139.7034  160.5819 N.ar    1  UNL1       -0.2249
      3 C         143.2791  140.5508  159.6283 C.ar    1  UNL1        0.1260
      4 C         144.0879  140.2066  158.4129 C.ar    1  UNL1        0.1212
      5 N         144.6549  141.4796  157.8578 N.ar    1  UNL1       -0.2265
      6 N         144.1965  142.6105  158.7301 N.ar    1  UNL1       -0.1586
      7 C         143.3461  142.0365  159.8243 C.ar    1  UNL1        0.1762
      8 C         142.6242  142.6746  160.9739 C.ar    1  UNL1        0.2829
      9 O         142.6913  144.1603  161.1700 O.2     1  UNL1       -0.2652
     10 N         141.8353  141.8272  161.9275 N.ar    1  UNL1       -0.2793
     11 C         143.1409  139.0088  164.0422 C.3     1  UNL1        0.0311
     12 C         141.6655  138.8277  163.8405 C.ar    1  UNL1       -0.0189
     13 C         140.8765  137.9803  164.7941 C.ar    1  UNL1       -0.0042
     14 C         139.4012  137.7992  164.5923 C.ar    1  UNL1       -0.0003
     15 C         138.7149  138.4657  163.4370 C.ar    1  UNL1        0.0001
     16 C         139.5039  139.3131  162.4834 C.ar    1  UNL1        0.0027
     17 C         140.9792  139.4941  162.6852 C.ar    1  UNL1        0.0303
     18 C         145.5272  141.6004  156.6435 C.ar    1  UNL1        0.0830
     19 C         146.8045  142.3839  156.7125 C.ar    1  UNL1        0.0200
     20 C         147.6767  142.5047  155.4981 C.ar    1  UNL1        0.0129
     21 C         147.2718  141.8420  154.2148 C.ar    1  UNL1        0.0578
     22 CL        148.1441  141.9629  153.0005 Cl      1  UNL1       -0.0822
     23 C         145.9945  141.0586  154.1458 C.ar    1  UNL1        0.0129
     24 C         145.1222  140.9378  155.3601 C.ar    1  UNL1        0.0200
     25 C         141.1134  142.4654  163.0772 C.3     1  UNL1        0.1119
     26 C         141.7023  142.4114  164.4556 C.3     1  UNL1        0.0388
     27 C         143.1613  142.6942  164.6595 C.3     1  UNL1        0.0048
     28 C         143.7502  142.6402  166.0379 C.3     1  UNL1        0.0174
     29 C         142.8802  142.3034  167.2126 C.3     1  UNL1        0.0720
     30 N         141.4213  142.0206  167.0087 N.3     1  UNL1       -0.2739
     31 C         140.8324  142.0746  165.6302 C.3     1  UNL1        0.0739
     32 C         140.5513  141.6838  168.1834 C.3     1  UNL1        0.0576
     33 C         140.3806  142.6727  169.2982 C.3     1  UNL1        0.0173
     34 C         139.8521  140.3581  168.2431 C.3     1  UNL1        0.0173
@<TRIPOS>BOND
     1    11    12    1
     2    12    13   ar
     3    13    14   ar
     4    14    15   ar
     5    15    16   ar
     6    16    17   ar
     7    17     1    1
     8     1     2   ar
     9     2     3   ar
    10     3     4   ar
    11     4     5   ar
    12     5    18    1
    13    18    19   ar
    14    19    20   ar
    15    20    21   ar
    16    21    22    1
    17    21    23   ar
    18    23    24   ar
    19     5     6   ar
    20     6     7   ar
    21     7     8   ar
    22     8     9    2
    23     8    10   ar
    24    10    25    1
    25    25    26    1
    26    26    27    1
    27    27    28    1
    28    28    29    1
    29    29    30    1
    30    30    32    1
    31    32    33    1
    32    32    34    1
    33    30    31    1
    34    17    12   ar
    35    10     1   ar
    36    31    26    1
    37     7     3   ar
    38    24    18   ar
