@<TRIPOS>MOLECULE
*****
 35 39 0 0 0
SMALL
GASTEIGER

@<TRIPOS>ATOM
      1 C         140.9746  144.1224  164.2874 C.3     1  UNL1        0.0870
      2 N         141.0887  143.1653  165.4367 N.pl3   1  UNL1       -0.3328
      3 H         140.8254  143.4493  166.3419 H       1  UNL1        0.1468
      4 C         141.6040  141.7754  165.2069 C.ar    1  UNL1        0.0431
      5 C         143.0276  141.5636  164.7845 C.ar    1  UNL1        0.0045
      6 C         143.5429  140.1738  164.5547 C.ar    1  UNL1        0.0561
      7 N         142.6345  138.9957  164.7474 N.ar    1  UNL1       -0.2499
      8 C         141.2109  139.2075  165.1698 C.ar    1  UNL1        0.0829
      9 C         140.3025  138.0295  165.3625 C.ar    1  UNL1        0.0305
     10 C         138.8789  138.2413  165.7849 C.ar    1  UNL1        0.0592
     11 CL        137.9706  137.0633  165.9775 Cl      1  UNL1       -0.0822
     12 C         138.3637  139.6311  166.0147 C.ar    1  UNL1        0.0115
     13 C         139.2720  140.8092  165.8220 C.ar    1  UNL1        0.0036
     14 C         140.6957  140.5974  165.3996 C.ar    1  UNL1        0.0305
     15 C         144.9665  139.9619  164.1323 C.3     1  UNL1        0.0455
     16 C         145.8748  141.1400  163.9397 C.3     1  UNL1        0.0066
     17 C         145.3595  142.5298  164.1694 C.3     1  UNL1        0.0052
     18 C         143.9360  142.7416  164.5919 C.3     1  UNL1        0.0288
     19 C         139.6795  144.8340  164.0298 C.3     1  UNL1        0.0212
     20 C         138.4634  144.4949  164.8397 C.3     1  UNL1        0.0032
     21 C         137.5958  143.3378  164.4417 C.3     1  UNL1        0.0171
     22 C         137.4411  142.9798  162.9933 C.3     1  UNL1        0.0685
     23 N         137.0974  141.5734  162.6009 N.3     1  UNL1       -0.2982
     24 H         136.5520  141.1789  163.3673 H       1  UNL1        0.1232
     25 O         143.9350  137.1549  160.7372 O.2     1  UNL1       -0.2726
     26 C         142.8427  138.1367  161.0417 C.2     1  UNL1        0.2497
     27 C         143.1261  139.6092  161.0050 C.3     1  UNL1        0.1129
     28 C         142.0337  140.5911  161.3095 C.2     1  UNL1       -0.0198
     29 C         140.6579  140.1004  161.6507 C.2     1  UNL1       -0.0134
     30 C         140.3745  138.6278  161.6874 C.2     1  UNL1        0.0468
     31 N         141.4669  137.6460  161.3829 N.am    1  UNL1       -0.1836
     32 C         138.9988  138.1372  162.0287 C.3     1  UNL1        0.0443
     33 C         137.9064  139.1191  162.3332 C.3     1  UNL1        0.0221
     34 C         138.1898  140.5915  162.2964 C.3     1  UNL1        0.0588
     35 C         139.5656  141.0822  161.9552 C.3     1  UNL1        0.0427
@<TRIPOS>BOND
     1    25    26    2
     2    26    27    1
     3    27    28    1
     4    28    29    2
     5    29    30    1
     6    30    31    2
     7    30    32    1
     8    32    33    1
     9    33    34    1
    10    34    23    1
    11    23    22    1
    12    22    21    1
    13    21    20    1
    14    20    19    1
    15    19     1    1
    16     1     2    1
    17     2     4    1
    18     4     5   ar
    19     5     6   ar
    20     6     7   ar
    21     7     8   ar
    22     8     9   ar
    23     9    10   ar
    24    10    11    1
    25    10    12   ar
    26    12    13   ar
    27    13    14   ar
    28     6    15    1
    29    15    16    1
    30    16    17    1
    31    17    18    1
    32    34    35    1
    33    31    26    1
    34    14     4   ar
    35    35    29    1
    36    18     5    1
    37    14     8   ar
    38    23    24    1
    39     2     3    1
@<TRIPOS>MOLECULE
*****
 35 39 0 0 0
SMALL
GASTEIGER

@<TRIPOS>ATOM
      1 C         141.8682  138.2623  162.3437 C.3     1  UNL1        0.0870
      2 N         140.5100  138.8986  162.3705 N.pl3   1  UNL1       -0.3328
      3 H         139.8823  138.7506  161.6267 H       1  UNL1        0.1468
      4 C         140.1083  139.7603  163.5307 C.ar    1  UNL1        0.0431
      5 C         139.3172  139.1737  164.6622 C.ar    1  UNL1        0.0045
      6 C         138.9155  140.0355  165.8224 C.ar    1  UNL1        0.0561
      7 N         139.3049  141.4838  165.8511 N.ar    1  UNL1       -0.2499
      8 C         140.0960  142.0703  164.7197 C.ar    1  UNL1        0.0829
      9 C         140.4854  143.5187  164.7484 C.ar    1  UNL1        0.0305
     10 C         141.2765  144.1052  163.6170 C.ar    1  UNL1        0.0592
     11 CL        141.6659  145.5535  163.6457 Cl      1  UNL1       -0.0822
     12 C         141.6782  143.2434  162.4568 C.ar    1  UNL1        0.0115
     13 C         141.2888  141.7952  162.4280 C.ar    1  UNL1        0.0036
     14 C         140.4977  141.2086  163.5595 C.ar    1  UNL1        0.0305
     15 C         138.1245  139.4490  166.9538 C.3     1  UNL1        0.0455
     16 C         137.7351  138.0007  166.9250 C.3     1  UNL1        0.0066
     17 C         138.1368  137.1390  165.7648 C.3     1  UNL1        0.0052
     18 C         138.9278  137.7255  164.6334 C.3     1  UNL1        0.0288
     19 C         142.8330  138.6001  161.2459 C.3     1  UNL1        0.0212
     20 C         144.2300  139.0310  161.5815 C.3     1  UNL1        0.0032
     21 C         144.4900  140.4307  162.0541 C.3     1  UNL1        0.0171
     22 C         145.0589  140.6670  163.4217 C.3     1  UNL1        0.0685
     23 N         144.4148  141.6629  164.3401 N.3     1  UNL1       -0.2982
     24 H         145.1634  142.2472  164.7123 H       1  UNL1        0.1232
     25 O         140.0044  140.2606  171.2922 O.2     1  UNL1       -0.2726
     26 C         140.8088  140.7340  170.1180 C.2     1  UNL1        0.2497
     27 C         141.2247  142.1721  170.0247 C.3     1  UNL1        0.1129
     28 C         142.0291  142.6456  168.8504 C.2     1  UNL1       -0.0198
     29 C         142.4176  141.6808  167.7695 C.2     1  UNL1       -0.0134
     30 C         142.0016  140.2426  167.8629 C.2     1  UNL1        0.0468
     31 N         141.1973  139.7692  169.0371 N.am    1  UNL1       -0.1836
     32 C         142.3901  139.2779  166.7820 C.3     1  UNL1        0.0443
     33 C         143.1945  139.7513  165.6077 C.3     1  UNL1        0.0221
     34 C         143.6104  141.1894  165.5144 C.3     1  UNL1        0.0588
     35 C         143.2219  142.1542  166.5953 C.3     1  UNL1        0.0427
@<TRIPOS>BOND
     1    25    26    2
     2    26    27    1
     3    27    28    1
     4    28    29    2
     5    29    30    1
     6    30    31    2
     7    30    32    1
     8    32    33    1
     9    33    34    1
    10    34    23    1
    11    23    22    1
    12    22    21    1
    13    21    20    1
    14    20    19    1
    15    19     1    1
    16     1     2    1
    17     2     4    1
    18     4     5   ar
    19     5     6   ar
    20     6     7   ar
    21     7     8   ar
    22     8     9   ar
    23     9    10   ar
    24    10    11    1
    25    10    12   ar
    26    12    13   ar
    27    13    14   ar
    28     6    15    1
    29    15    16    1
    30    16    17    1
    31    17    18    1
    32    34    35    1
    33    31    26    1
    34    14     4   ar
    35    35    29    1
    36    18     5    1
    37    14     8   ar
    38    23    24    1
    39     2     3    1
@<TRIPOS>MOLECULE
*****
 35 39 0 0 0
SMALL
GASTEIGER

@<TRIPOS>ATOM
      1 C         143.5457  143.7752  164.4276 C.3     1  UNL1        0.0870
      2 N         142.4357  143.1800  165.2423 N.pl3   1  UNL1       -0.3328
      3 H         141.7181  143.7563  165.5920 H       1  UNL1        0.1468
      4 C         142.4190  141.7068  165.5242 C.ar    1  UNL1        0.0431
      5 C         142.5727  141.2107  166.9315 C.ar    1  UNL1        0.0045
      6 C         142.5561  139.7376  167.2134 C.ar    1  UNL1        0.0561
      7 N         142.3856  138.7605  166.0881 N.ar    1  UNL1       -0.2499
      8 C         142.2319  139.2566  164.6809 C.ar    1  UNL1        0.0829
      9 C         142.0614  138.2795  163.5555 C.ar    1  UNL1        0.0305
     10 C         141.9077  138.7757  162.1484 C.ar    1  UNL1        0.0592
     11 CL        141.7373  137.7986  161.0231 Cl      1  UNL1       -0.0822
     12 C         141.9244  140.2488  161.8664 C.ar    1  UNL1        0.0115
     13 C         142.0948  141.2259  162.9917 C.ar    1  UNL1        0.0036
     14 C         142.2486  140.7298  164.3990 C.ar    1  UNL1        0.0305
     15 C         142.7098  139.2414  168.6206 C.3     1  UNL1        0.0455
     16 C         142.8802  140.2185  169.7459 C.3     1  UNL1        0.0066
     17 C         142.8969  141.6917  169.4639 C.3     1  UNL1        0.0052
     18 C         142.7432  142.1878  168.0568 C.3     1  UNL1        0.0288
     19 C         143.2782  144.9606  163.5482 C.3     1  UNL1        0.0212
     20 C         142.1410  144.9278  162.5707 C.3     1  UNL1        0.0032
     21 C         140.8648  145.6527  162.8802 C.3     1  UNL1        0.0171
     22 C         139.7010  145.5579  161.9385 C.3     1  UNL1        0.0685
     23 N         138.4328  144.8887  162.3787 N.3     1  UNL1       -0.2982
     24 H         138.1188  145.3758  163.2181 H       1  UNL1        0.1232
     25 O         138.6554  137.1072  165.4033 O.2     1  UNL1       -0.2726
     26 C         138.6574  138.5719  165.0802 C.2     1  UNL1        0.2497
     27 C         138.8923  139.5792  166.1666 C.3     1  UNL1        0.1129
     28 C         138.8943  141.0441  165.8436 C.2     1  UNL1       -0.0198
     29 C         138.6615  141.5016  164.4342 C.2     1  UNL1       -0.0134
     30 C         138.4266  140.4942  163.3478 C.2     1  UNL1        0.0468
     31 N         138.4246  139.0295  163.6708 N.am    1  UNL1       -0.1836
     32 C         138.1938  140.9517  161.9383 C.3     1  UNL1        0.0443
     33 C         138.1959  142.4166  161.6153 C.3     1  UNL1        0.0221
     34 C         138.4307  143.4239  162.7017 C.3     1  UNL1        0.0588
     35 C         138.6635  142.9663  164.1111 C.3     1  UNL1        0.0427
@<TRIPOS>BOND
     1    25    26    2
     2    26    27    1
     3    27    28    1
     4    28    29    2
     5    29    30    1
     6    30    31    2
     7    30    32    1
     8    32    33    1
     9    33    34    1
    10    34    23    1
    11    23    22    1
    12    22    21    1
    13    21    20    1
    14    20    19    1
    15    19     1    1
    16     1     2    1
    17     2     4    1
    18     4     5   ar
    19     5     6   ar
    20     6     7   ar
    21     7     8   ar
    22     8     9   ar
    23     9    10   ar
    24    10    11    1
    25    10    12   ar
    26    12    13   ar
    27    13    14   ar
    28     6    15    1
    29    15    16    1
    30    16    17    1
    31    17    18    1
    32    34    35    1
    33    31    26    1
    34    14     4   ar
    35    35    29    1
    36    18     5    1
    37    14     8   ar
    38    23    24    1
    39     2     3    1
@<TRIPOS>MOLECULE
*****
 35 39 0 0 0
SMALL
GASTEIGER

@<TRIPOS>ATOM
      1 C         138.4906  143.9405  164.7165 C.3     1  UNL1        0.0870
      2 N         139.7599  143.1486  164.8264 N.pl3   1  UNL1       -0.3328
      3 H         140.6005  143.5136  164.4666 H       1  UNL1        0.1468
      4 C         139.7485  141.8008  165.4845 C.ar    1  UNL1        0.0431
      5 C         139.4193  140.5770  164.6818 C.ar    1  UNL1        0.0045
      6 C         139.4078  139.2291  165.3399 C.ar    1  UNL1        0.0561
      7 N         139.7255  139.1050  166.8006 N.ar    1  UNL1       -0.2499
      8 C         140.0546  140.3287  167.6032 C.ar    1  UNL1        0.0829
      9 C         140.3722  140.2045  169.0640 C.ar    1  UNL1        0.0305
     10 C         140.7013  141.4282  169.8666 C.ar    1  UNL1        0.0592
     11 CL        141.0189  141.3040  171.3273 Cl      1  UNL1       -0.0822
     12 C         140.7128  142.7761  169.2085 C.ar    1  UNL1        0.0115
     13 C         140.3952  142.9003  167.7479 C.ar    1  UNL1        0.0036
     14 C         140.0661  141.6766  166.9452 C.ar    1  UNL1        0.0305
     15 C         139.0787  138.0054  164.5373 C.3     1  UNL1        0.0455
     16 C         138.7611  138.1296  163.0766 C.3     1  UNL1        0.0066
     17 C         138.7726  139.4775  162.4185 C.3     1  UNL1        0.0052
     18 C         139.1017  140.7012  163.2211 C.3     1  UNL1        0.0288
     19 C         138.0066  144.3989  163.3728 C.3     1  UNL1        0.0212
     20 C         138.9437  145.1062  162.4393 C.3     1  UNL1        0.0032
     21 C         139.8788  144.3150  161.5734 C.3     1  UNL1        0.0171
     22 C         141.0489  144.9898  160.9213 C.3     1  UNL1        0.0685
     23 N         142.4401  144.7196  161.4129 N.3     1  UNL1       -0.2982
     24 H         142.9852  144.4204  160.6043 H       1  UNL1        0.1232
     25 O         143.4577  138.1703  166.4944 O.2     1  UNL1       -0.2726
     26 C         143.2275  139.1878  165.4165 C.2     1  UNL1        0.2497
     27 C         142.8643  138.7432  164.0308 C.3     1  UNL1        0.1129
     28 C         142.6341  139.7607  162.9528 C.2     1  UNL1       -0.0198
     29 C         142.7673  141.2227  163.2607 C.2     1  UNL1       -0.0134
     30 C         143.1305  141.6672  164.6466 C.2     1  UNL1        0.0468
     31 N         143.3607  140.6498  165.7244 N.am    1  UNL1       -0.1836
     32 C         143.2637  143.1292  164.9545 C.3     1  UNL1        0.0443
     33 C         143.0335  144.1467  163.8765 C.3     1  UNL1        0.0221
     34 C         142.6703  143.7021  162.4908 C.3     1  UNL1        0.0588
     35 C         142.5371  142.2401  162.1829 C.3     1  UNL1        0.0427
@<TRIPOS>BOND
     1    25    26    2
     2    26    27    1
     3    27    28    1
     4    28    29    2
     5    29    30    1
     6    30    31    2
     7    30    32    1
     8    32    33    1
     9    33    34    1
    10    34    23    1
    11    23    22    1
    12    22    21    1
    13    21    20    1
    14    20    19    1
    15    19     1    1
    16     1     2    1
    17     2     4    1
    18     4     5   ar
    19     5     6   ar
    20     6     7   ar
    21     7     8   ar
    22     8     9   ar
    23     9    10   ar
    24    10    11    1
    25    10    12   ar
    26    12    13   ar
    27    13    14   ar
    28     6    15    1
    29    15    16    1
    30    16    17    1
    31    17    18    1
    32    34    35    1
    33    31    26    1
    34    14     4   ar
    35    35    29    1
    36    18     5    1
    37    14     8   ar
    38    23    24    1
    39     2     3    1
@<TRIPOS>MOLECULE
*****
 35 39 0 0 0
SMALL
GASTEIGER

@<TRIPOS>ATOM
      1 C         141.0819  137.9728  164.8454 C.3     1  UNL1        0.0870
      2 N         140.7161  139.4275  164.8281 N.pl3   1  UNL1       -0.3328
      3 H         139.8827  139.7204  164.3935 H       1  UNL1        0.1468
      4 C         141.6202  140.4359  165.4729 C.ar    1  UNL1        0.0431
      5 C         142.8476  140.9112  164.7534 C.ar    1  UNL1        0.0045
      6 C         143.7517  141.9196  165.3983 C.ar    1  UNL1        0.0561
      7 N         143.4284  142.4526  166.7627 N.ar    1  UNL1       -0.2499
      8 C         142.2010  141.9772  167.4821 C.ar    1  UNL1        0.0829
      9 C         141.8777  142.5102  168.8465 C.ar    1  UNL1        0.0305
     10 C         140.6504  142.0349  169.5659 C.ar    1  UNL1        0.0592
     11 CL        140.3272  142.5678  170.9302 Cl      1  UNL1       -0.0822
     12 C         139.7463  141.0265  168.9211 C.ar    1  UNL1        0.0115
     13 C         140.0696  140.4935  167.5568 C.ar    1  UNL1        0.0036
     14 C         141.2970  140.9689  166.8372 C.ar    1  UNL1        0.0305
     15 C         144.9790  142.3950  164.6788 C.3     1  UNL1        0.0455
     16 C         145.3023  141.8620  163.3145 C.3     1  UNL1        0.0066
     17 C         144.3982  140.8536  162.6697 C.3     1  UNL1        0.0052
     18 C         143.1708  140.3782  163.3891 C.3     1  UNL1        0.0288
     19 C         141.0765  137.1829  163.5702 C.3     1  UNL1        0.0212
     20 C         140.1705  137.5833  162.4438 C.3     1  UNL1        0.0032
     21 C         138.7117  137.8182  162.7019 C.3     1  UNL1        0.0171
     22 C         137.8959  138.6133  161.7261 C.3     1  UNL1        0.0685
     23 N         137.3352  139.9454  162.1275 N.3     1  UNL1       -0.2982
     24 H         136.8911  140.3399  161.2983 H       1  UNL1        0.1232
     25 O         143.0541  145.7072  164.0885 O.2     1  UNL1       -0.2726
     26 C         142.1473  144.6471  163.5372 C.2     1  UNL1        0.2497
     27 C         142.4255  144.0485  162.1903 C.3     1  UNL1        0.1129
     28 C         141.5187  142.9883  161.6390 C.2     1  UNL1       -0.0198
     29 C         140.3337  142.5270  162.4345 C.2     1  UNL1       -0.0134
     30 C         140.0556  143.1257  163.7815 C.2     1  UNL1        0.0468
     31 N         140.9624  144.1858  164.3328 N.am    1  UNL1       -0.1836
     32 C         138.8706  142.6643  164.5771 C.3     1  UNL1        0.0443
     33 C         137.9638  141.6042  164.0257 C.3     1  UNL1        0.0221
     34 C         138.2420  141.0055  162.6788 C.3     1  UNL1        0.0588
     35 C         139.4270  141.4669  161.8832 C.3     1  UNL1        0.0427
@<TRIPOS>BOND
     1    25    26    2
     2    26    27    1
     3    27    28    1
     4    28    29    2
     5    29    30    1
     6    30    31    2
     7    30    32    1
     8    32    33    1
     9    33    34    1
    10    34    23    1
    11    23    22    1
    12    22    21    1
    13    21    20    1
    14    20    19    1
    15    19     1    1
    16     1     2    1
    17     2     4    1
    18     4     5   ar
    19     5     6   ar
    20     6     7   ar
    21     7     8   ar
    22     8     9   ar
    23     9    10   ar
    24    10    11    1
    25    10    12   ar
    26    12    13   ar
    27    13    14   ar
    28     6    15    1
    29    15    16    1
    30    16    17    1
    31    17    18    1
    32    34    35    1
    33    31    26    1
    34    14     4   ar
    35    35    29    1
    36    18     5    1
    37    14     8   ar
    38    23    24    1
    39     2     3    1
@<TRIPOS>MOLECULE
*****
 35 39 0 0 0
SMALL
GASTEIGER

@<TRIPOS>ATOM
      1 C         141.7585  139.5190  165.2007 C.3     1  UNL1        0.0870
      2 N         141.8798  140.7805  164.3980 N.pl3   1  UNL1       -0.3328
      3 H         142.6881  141.3372  164.4751 H       1  UNL1        0.1468
      4 C         140.7694  141.1936  163.4780 C.ar    1  UNL1        0.0431
      5 C         139.8479  142.3108  163.8691 C.ar    1  UNL1        0.0045
      6 C         138.7375  142.7240  162.9491 C.ar    1  UNL1        0.0561
      7 N         138.5487  142.0200  161.6380 N.ar    1  UNL1       -0.2499
      8 C         139.4702  140.9029  161.2470 C.ar    1  UNL1        0.0829
      9 C         139.2814  140.1990  159.9359 C.ar    1  UNL1        0.0305
     10 C         140.2029  139.0819  159.5449 C.ar    1  UNL1        0.0592
     11 CL        140.0141  138.3780  158.2339 Cl      1  UNL1       -0.0822
     12 C         141.3133  138.6687  160.4649 C.ar    1  UNL1        0.0115
     13 C         141.5021  139.3726  161.7759 C.ar    1  UNL1        0.0036
     14 C         140.5806  140.4898  162.1670 C.ar    1  UNL1        0.0305
     15 C         137.8160  143.8410  163.3401 C.3     1  UNL1        0.0455
     16 C         138.0049  144.5449  164.6511 C.3     1  UNL1        0.0066
     17 C         139.1152  144.1318  165.5711 C.3     1  UNL1        0.0052
     18 C         140.0367  143.0147  165.1801 C.3     1  UNL1        0.0288
     19 C         142.8949  138.5406  165.2364 C.3     1  UNL1        0.0212
     20 C         144.3109  139.0341  165.1996 C.3     1  UNL1        0.0032
     21 C         144.8729  139.6070  163.9323 C.3     1  UNL1        0.0171
     22 C         145.7109  140.8502  163.9782 C.3     1  UNL1        0.0685
     23 N         145.6431  141.8423  162.8552 N.3     1  UNL1       -0.2982
     24 H         146.4866  142.4127  162.9149 H       1  UNL1        0.1232
     25 O         138.9976  146.6055  161.1523 O.2     1  UNL1       -0.2726
     26 C         140.1559  145.6571  161.2463 C.2     1  UNL1        0.2497
     27 C         140.4604  144.7300  160.1071 C.3     1  UNL1        0.1129
     28 C         141.6188  143.7816  160.2011 C.2     1  UNL1       -0.0198
     29 C         142.4726  143.7603  161.4342 C.2     1  UNL1       -0.0134
     30 C         142.1680  144.6875  162.5734 C.2     1  UNL1        0.0468
     31 N         141.0097  145.6359  162.4794 N.am    1  UNL1       -0.1836
     32 C         143.0218  144.6663  163.8065 C.3     1  UNL1        0.0443
     33 C         144.1802  143.7178  163.9004 C.3     1  UNL1        0.0221
     34 C         144.4847  142.7907  162.7613 C.3     1  UNL1        0.0588
     35 C         143.6309  142.8120  161.5282 C.3     1  UNL1        0.0427
@<TRIPOS>BOND
     1    25    26    2
     2    26    27    1
     3    27    28    1
     4    28    29    2
     5    29    30    1
     6    30    31    2
     7    30    32    1
     8    32    33    1
     9    33    34    1
    10    34    23    1
    11    23    22    1
    12    22    21    1
    13    21    20    1
    14    20    19    1
    15    19     1    1
    16     1     2    1
    17     2     4    1
    18     4     5   ar
    19     5     6   ar
    20     6     7   ar
    21     7     8   ar
    22     8     9   ar
    23     9    10   ar
    24    10    11    1
    25    10    12   ar
    26    12    13   ar
    27    13    14   ar
    28     6    15    1
    29    15    16    1
    30    16    17    1
    31    17    18    1
    32    34    35    1
    33    31    26    1
    34    14     4   ar
    35    35    29    1
    36    18     5    1
    37    14     8   ar
    38    23    24    1
    39     2     3    1
@<TRIPOS>MOLECULE
*****
 35 39 0 0 0
SMALL
GASTEIGER

@<TRIPOS>ATOM
      1 C         139.9048  138.0722  164.9789 C.3     1  UNL1        0.0870
      2 N         139.4443  138.8458  166.1787 N.pl3   1  UNL1       -0.3328
      3 H         138.8486  138.4226  166.8385 H       1  UNL1        0.1468
      4 C         139.8914  140.2644  166.3732 C.ar    1  UNL1        0.0431
      5 C         140.9413  140.5864  167.3951 C.ar    1  UNL1        0.0045
      6 C         141.3884  142.0050  167.5896 C.ar    1  UNL1        0.0561
      7 N         140.7855  143.1015  166.7623 N.ar    1  UNL1       -0.2499
      8 C         139.7357  142.7794  165.7405 C.ar    1  UNL1        0.0829
      9 C         139.1328  143.8759  164.9132 C.ar    1  UNL1        0.0305
     10 C         138.0830  143.5538  163.8915 C.ar    1  UNL1        0.0592
     11 CL        137.4802  144.6503  163.0642 Cl      1  UNL1       -0.0822
     12 C         137.6359  142.1353  163.6970 C.ar    1  UNL1        0.0115
     13 C         138.2387  141.0388  164.5242 C.ar    1  UNL1        0.0036
     14 C         139.2886  141.3609  165.5460 C.ar    1  UNL1        0.0305
     15 C         142.4382  142.3271  168.6113 C.3     1  UNL1        0.0455
     16 C         143.0410  141.2306  169.4385 C.3     1  UNL1        0.0066
     17 C         142.5939  139.8121  169.2440 C.3     1  UNL1        0.0052
     18 C         141.5441  139.4900  168.2223 C.3     1  UNL1        0.0288
     19 C         138.8987  137.4774  164.0387 C.3     1  UNL1        0.0212
     20 C         138.9864  137.7619  162.5685 C.3     1  UNL1        0.0032
     21 C         137.9026  138.5465  161.8905 C.3     1  UNL1        0.0171
     22 C         138.2555  139.7177  161.0224 C.3     1  UNL1        0.0685
     23 N         139.6854  139.9666  160.6436 N.3     1  UNL1       -0.2982
     24 H         140.1541  139.0606  160.6515 H       1  UNL1        0.1232
     25 O         144.7886  144.0718  165.8258 O.2     1  UNL1       -0.2726
     26 C         143.9462  143.1414  165.0044 C.2     1  UNL1        0.2497
     27 C         143.9950  141.6639  165.2585 C.3     1  UNL1        0.1129
     28 C         143.1526  140.7334  164.4372 C.2     1  UNL1       -0.0198
     29 C         142.2614  141.2805  163.3617 C.2     1  UNL1       -0.0134
     30 C         142.2126  142.7580  163.1077 C.2     1  UNL1        0.0468
     31 N         143.0550  143.6885  163.9290 N.am    1  UNL1       -0.1836
     32 C         141.3215  143.3051  162.0322 C.3     1  UNL1        0.0443
     33 C         140.4791  142.3746  161.2109 C.3     1  UNL1        0.0221
     34 C         140.5278  140.8971  161.4650 C.3     1  UNL1        0.0588
     35 C         141.4190  140.3500  162.5404 C.3     1  UNL1        0.0427
@<TRIPOS>BOND
     1    25    26    2
     2    26    27    1
     3    27    28    1
     4    28    29    2
     5    29    30    1
     6    30    31    2
     7    30    32    1
     8    32    33    1
     9    33    34    1
    10    34    23    1
    11    23    22    1
    12    22    21    1
    13    21    20    1
    14    20    19    1
    15    19     1    1
    16     1     2    1
    17     2     4    1
    18     4     5   ar
    19     5     6   ar
    20     6     7   ar
    21     7     8   ar
    22     8     9   ar
    23     9    10   ar
    24    10    11    1
    25    10    12   ar
    26    12    13   ar
    27    13    14   ar
    28     6    15    1
    29    15    16    1
    30    16    17    1
    31    17    18    1
    32    34    35    1
    33    31    26    1
    34    14     4   ar
    35    35    29    1
    36    18     5    1
    37    14     8   ar
    38    23    24    1
    39     2     3    1
@<TRIPOS>MOLECULE
*****
 35 39 0 0 0
SMALL
GASTEIGER

@<TRIPOS>ATOM
      1 C         143.4660  138.7335  162.7648 C.3     1  UNL1        0.0870
      2 N         144.3235  139.3197  163.8470 N.pl3   1  UNL1       -0.3328
      3 H         145.2004  138.9211  164.0504 H       1  UNL1        0.1468
      4 C         143.8450  140.5134  164.6191 C.ar    1  UNL1        0.0431
      5 C         143.9015  141.8788  164.0004 C.ar    1  UNL1        0.0045
      6 C         143.4230  143.0724  164.7726 C.ar    1  UNL1        0.0561
      7 N         142.8878  142.9007  166.1634 N.ar    1  UNL1       -0.2499
      8 C         142.8313  141.5354  166.7819 C.ar    1  UNL1        0.0829
      9 C         142.2961  141.3636  168.1727 C.ar    1  UNL1        0.0305
     10 C         142.2396  139.9983  168.7913 C.ar    1  UNL1        0.0592
     11 CL        141.7044  139.8267  170.1820 Cl      1  UNL1       -0.0822
     12 C         142.7181  138.8047  168.0192 C.ar    1  UNL1        0.0115
     13 C         143.2533  138.9764  166.6285 C.ar    1  UNL1        0.0036
     14 C         143.3098  140.3417  166.0098 C.ar    1  UNL1        0.0305
     15 C         143.4795  144.4377  164.1540 C.3     1  UNL1        0.0455
     16 C         144.0146  144.6094  162.7633 C.3     1  UNL1        0.0066
     17 C         144.4932  143.4157  161.9911 C.3     1  UNL1        0.0052
     18 C         144.4367  142.0504  162.6097 C.3     1  UNL1        0.0288
     19 C         141.9749  138.7005  162.9246 C.3     1  UNL1        0.0212
     20 C         141.3096  137.4882  163.5056 C.3     1  UNL1        0.0032
     21 C         140.6054  137.5799  164.8269 C.3     1  UNL1        0.0171
     22 C         139.1074  137.6389  164.8760 C.3     1  UNL1        0.0685
     23 N         138.4210  138.8862  165.3483 N.3     1  UNL1       -0.2982
     24 H         137.4410  138.6451  165.4958 H       1  UNL1        0.1232
     25 O         139.1724  146.3095  161.5959 O.2     1  UNL1       -0.2726
     26 C         139.1537  145.0748  162.4474 C.2     1  UNL1        0.2497
     27 C         139.7924  145.0900  163.8045 C.3     1  UNL1        0.1129
     28 C         139.7736  143.8553  164.6561 C.2     1  UNL1       -0.0198
     29 C         139.1161  142.6054  164.1506 C.2     1  UNL1       -0.0134
     30 C         138.4774  142.5903  162.7934 C.2     1  UNL1        0.0468
     31 N         138.4961  143.8250  161.9419 N.am    1  UNL1       -0.1836
     32 C         137.8198  141.3405  162.2879 C.3     1  UNL1        0.0443
     33 C         137.8011  140.1057  163.1395 C.3     1  UNL1        0.0221
     34 C         138.4398  140.1209  164.4966 C.3     1  UNL1        0.0588
     35 C         139.0973  141.3707  165.0022 C.3     1  UNL1        0.0427
@<TRIPOS>BOND
     1    25    26    2
     2    26    27    1
     3    27    28    1
     4    28    29    2
     5    29    30    1
     6    30    31    2
     7    30    32    1
     8    32    33    1
     9    33    34    1
    10    34    23    1
    11    23    22    1
    12    22    21    1
    13    21    20    1
    14    20    19    1
    15    19     1    1
    16     1     2    1
    17     2     4    1
    18     4     5   ar
    19     5     6   ar
    20     6     7   ar
    21     7     8   ar
    22     8     9   ar
    23     9    10   ar
    24    10    11    1
    25    10    12   ar
    26    12    13   ar
    27    13    14   ar
    28     6    15    1
    29    15    16    1
    30    16    17    1
    31    17    18    1
    32    34    35    1
    33    31    26    1
    34    14     4   ar
    35    35    29    1
    36    18     5    1
    37    14     8   ar
    38    23    24    1
    39     2     3    1
@<TRIPOS>MOLECULE
*****
 35 39 0 0 0
SMALL
GASTEIGER

@<TRIPOS>ATOM
      1 C         138.5850  138.4068  161.9077 C.3     1  UNL1        0.0870
      2 N         137.5502  139.4270  161.5353 N.pl3   1  UNL1       -0.3328
      3 H         136.5979  139.1783  161.5172 H       1  UNL1        0.1468
      4 C         137.9667  140.8262  161.1903 C.ar    1  UNL1        0.0431
      5 C         138.2716  141.1886  159.7670 C.ar    1  UNL1        0.0045
      6 C         138.6881  142.5877  159.4221 C.ar    1  UNL1        0.0561
      7 N         138.7995  143.6245  160.5004 N.ar    1  UNL1       -0.2499
      8 C         138.4945  143.2620  161.9237 C.ar    1  UNL1        0.0829
      9 C         138.6060  144.2988  163.0020 C.ar    1  UNL1        0.0305
     10 C         138.3010  143.9364  164.4252 C.ar    1  UNL1        0.0592
     11 CL        138.4125  144.9731  165.5035 Cl      1  UNL1       -0.0822
     12 C         137.8846  142.5372  164.7702 C.ar    1  UNL1        0.0115
     13 C         137.7731  141.5005  163.6919 C.ar    1  UNL1        0.0036
     14 C         138.0781  141.8629  162.2686 C.ar    1  UNL1        0.0305
     15 C         138.9930  142.9501  157.9988 C.3     1  UNL1        0.0455
     16 C         138.8816  141.9134  156.9206 C.3     1  UNL1        0.0066
     17 C         138.4652  140.5143  157.2655 C.3     1  UNL1        0.0052
     18 C         138.1602  140.1518  158.6887 C.3     1  UNL1        0.0288
     19 C         138.6213  137.8491  163.2997 C.3     1  UNL1        0.0212
     20 C         139.8769  137.9471  164.1144 C.3     1  UNL1        0.0032
     21 C         139.8839  138.7369  165.3896 C.3     1  UNL1        0.0171
     22 C         141.1185  139.4811  165.8042 C.3     1  UNL1        0.0685
     23 N         141.1109  140.9804  165.8491 N.3     1  UNL1       -0.2982
     24 H         140.1628  141.2627  166.0976 H       1  UNL1        0.1232
     25 O         143.0114  144.2699  158.4115 O.2     1  UNL1       -0.2726
     26 C         142.6298  143.4812  159.6290 C.2     1  UNL1        0.2497
     27 C         142.2410  142.0386  159.4966 C.3     1  UNL1        0.1129
     28 C         141.8594  141.2498  160.7142 C.2     1  UNL1       -0.0198
     29 C         141.8667  141.9038  162.0641 C.2     1  UNL1       -0.0134
     30 C         142.2556  143.3465  162.1965 C.2     1  UNL1        0.0468
     31 N         142.6371  144.1352  160.9790 N.am    1  UNL1       -0.1836
     32 C         142.2629  144.0005  163.5464 C.3     1  UNL1        0.0443
     33 C         141.8813  143.2117  164.7639 C.3     1  UNL1        0.0221
     34 C         141.4924  141.7691  164.6315 C.3     1  UNL1        0.0588
     35 C         141.4851  141.1151  163.2816 C.3     1  UNL1        0.0427
@<TRIPOS>BOND
     1    25    26    2
     2    26    27    1
     3    27    28    1
     4    28    29    2
     5    29    30    1
     6    30    31    2
     7    30    32    1
     8    32    33    1
     9    33    34    1
    10    34    23    1
    11    23    22    1
    12    22    21    1
    13    21    20    1
    14    20    19    1
    15    19     1    1
    16     1     2    1
    17     2     4    1
    18     4     5   ar
    19     5     6   ar
    20     6     7   ar
    21     7     8   ar
    22     8     9   ar
    23     9    10   ar
    24    10    11    1
    25    10    12   ar
    26    12    13   ar
    27    13    14   ar
    28     6    15    1
    29    15    16    1
    30    16    17    1
    31    17    18    1
    32    34    35    1
    33    31    26    1
    34    14     4   ar
    35    35    29    1
    36    18     5    1
    37    14     8   ar
    38    23    24    1
    39     2     3    1
