@<TRIPOS>MOLECULE
*****
 25 28 0 0 0
SMALL
GASTEIGER

@<TRIPOS>ATOM
      1 N         141.6670  141.1133  165.8168 N.pl3   1  UNL1       -0.2860
      2 C         142.9538  141.2369  165.0557 C.ar    1  UNL1        0.0576
      3 C         143.8146  142.4528  165.2303 C.ar    1  UNL1        0.0153
      4 C         145.1013  142.5763  164.4692 C.ar    1  UNL1        0.0013
      5 C         145.5270  141.4840  163.5335 C.ar    1  UNL1        0.0006
      6 C         144.6661  140.2681  163.3589 C.ar    1  UNL1        0.0077
      7 C         143.3795  140.1446  164.1200 C.ar    1  UNL1        0.0431
      8 S         142.5186  138.9287  163.9454 S.3     1  UNL1       -0.0844
      9 C         141.2319  138.8052  164.7064 C.ar    1  UNL1        0.0431
     10 C         140.3710  137.5892  164.5318 C.ar    1  UNL1        0.0086
     11 C         139.0844  137.4657  165.2929 C.ar    1  UNL1        0.0120
     12 C         138.6586  138.5581  166.2286 C.ar    1  UNL1        0.0589
     13 CL        137.3720  138.4345  166.9897 Cl      1  UNL1       -0.0822
     14 C         139.5195  139.7739  166.4032 C.ar    1  UNL1        0.0267
     15 C         140.8062  139.8975  165.6421 C.ar    1  UNL1        0.0585
     16 C         141.2413  142.2057  166.7525 C.3     1  UNL1        0.0970
     17 C         140.2004  143.1971  166.3238 C.3     1  UNL1        0.0391
     18 C         140.1037  143.6079  164.8844 C.3     1  UNL1        0.0739
     19 C         137.5335  139.9466  160.8858 C.3     1  UNL1        0.0897
     20 N         138.1760  140.8619  161.8855 N.3     1  UNL1       -0.2691
     21 C         137.3955  141.3419  163.0731 C.3     1  UNL1        0.0897
     22 C         138.0380  142.2572  164.0728 C.3     1  UNL1        0.0897
     23 N         139.4611  142.6926  163.8848 N.3     1  UNL1       -0.2703
     24 C         140.2416  142.2126  162.6972 C.3     1  UNL1        0.0897
     25 C         139.5991  141.2973  161.6975 C.3     1  UNL1        0.0897
@<TRIPOS>BOND
     1    19    20    1
     2    20    21    1
     3    21    22    1
     4    22    23    1
     5    23    18    1
     6    18    17    1
     7    17    16    1
     8    16     1    1
     9     1     2    1
    10     2     3   ar
    11     3     4   ar
    12     4     5   ar
    13     5     6   ar
    14     6     7   ar
    15     7     8    1
    16     8     9    1
    17     9    10   ar
    18    10    11   ar
    19    11    12   ar
    20    12    13    1
    21    12    14   ar
    22    14    15   ar
    23    23    24    1
    24    24    25    1
    25    25    20    1
    26    15     1    1
    27     7     2   ar
    28    15     9   ar
@<TRIPOS>MOLECULE
*****
 25 28 0 0 0
SMALL
GASTEIGER

@<TRIPOS>ATOM
      1 N         140.7989  142.3339  165.0481 N.pl3   1  UNL1       -0.2860
      2 C         141.9271  142.7639  164.1579 C.ar    1  UNL1        0.0576
      3 C         142.3731  144.1959  164.1511 C.ar    1  UNL1        0.0153
      4 C         143.5013  144.6258  163.2609 C.ar    1  UNL1        0.0013
      5 C         144.1833  143.6236  162.3775 C.ar    1  UNL1        0.0006
      6 C         143.7372  142.1915  162.3843 C.ar    1  UNL1        0.0077
      7 C         142.6091  141.7617  163.2745 C.ar    1  UNL1        0.0431
      8 S         142.1630  140.3295  163.2813 S.3     1  UNL1       -0.0844
      9 C         141.0348  139.8996  164.1714 C.ar    1  UNL1        0.0431
     10 C         140.5887  138.4675  164.1783 C.ar    1  UNL1        0.0086
     11 C         139.4605  138.0376  165.0684 C.ar    1  UNL1        0.0120
     12 C         138.7785  139.0398  165.9518 C.ar    1  UNL1        0.0589
     13 CL        137.6503  138.6099  166.8420 Cl      1  UNL1       -0.0822
     14 C         139.2246  140.4719  165.9451 C.ar    1  UNL1        0.0267
     15 C         140.3528  140.9018  165.0549 C.ar    1  UNL1        0.0585
     16 C         140.1168  143.3361  165.9315 C.3     1  UNL1        0.0970
     17 C         139.0311  144.2093  165.3761 C.3     1  UNL1        0.0391
     18 C         138.3072  143.8029  164.1267 C.3     1  UNL1        0.0739
     19 C         140.5648  145.2280  158.7533 C.3     1  UNL1        0.0897
     20 N         140.0004  144.8717  160.0967 N.3     1  UNL1       -0.2691
     21 C         139.9050  145.9145  161.1707 C.3     1  UNL1        0.0897
     22 C         139.3406  145.5583  162.5140 C.3     1  UNL1        0.0897
     23 N         138.8716  144.1592  162.7833 N.3     1  UNL1       -0.2703
     24 C         138.9670  143.1164  161.7094 C.3     1  UNL1        0.0897
     25 C         139.5314  143.4726  160.3661 C.3     1  UNL1        0.0897
@<TRIPOS>BOND
     1    19    20    1
     2    20    21    1
     3    21    22    1
     4    22    23    1
     5    23    18    1
     6    18    17    1
     7    17    16    1
     8    16     1    1
     9     1     2    1
    10     2     3   ar
    11     3     4   ar
    12     4     5   ar
    13     5     6   ar
    14     6     7   ar
    15     7     8    1
    16     8     9    1
    17     9    10   ar
    18    10    11   ar
    19    11    12   ar
    20    12    13    1
    21    12    14   ar
    22    14    15   ar
    23    23    24    1
    24    24    25    1
    25    25    20    1
    26    15     1    1
    27     7     2   ar
    28    15     9   ar
@<TRIPOS>MOLECULE
*****
 25 28 0 0 0
SMALL
GASTEIGER

@<TRIPOS>ATOM
      1 N         140.1992  140.9251  165.3384 N.pl3   1  UNL1       -0.2860
      2 C         139.6811  142.0471  164.4883 C.ar    1  UNL1        0.0576
      3 C         138.2735  142.5342  164.6658 C.ar    1  UNL1        0.0153
      4 C         137.7554  143.6561  163.8156 C.ar    1  UNL1        0.0013
      5 C         138.6448  144.2910  162.7881 C.ar    1  UNL1        0.0006
      6 C         140.0524  143.8039  162.6106 C.ar    1  UNL1        0.0077
      7 C         140.5705  142.6819  163.4608 C.ar    1  UNL1        0.0431
      8 S         141.9781  142.1948  163.2833 S.3     1  UNL1       -0.0844
      9 C         142.4962  141.0728  164.1334 C.ar    1  UNL1        0.0431
     10 C         143.9038  140.5857  163.9560 C.ar    1  UNL1        0.0086
     11 C         144.4219  139.4637  164.8061 C.ar    1  UNL1        0.0120
     12 C         143.5325  138.8289  165.8337 C.ar    1  UNL1        0.0589
     13 CL        144.0506  137.7069  166.6838 Cl      1  UNL1       -0.0822
     14 C         142.1250  139.3160  166.0111 C.ar    1  UNL1        0.0267
     15 C         141.6068  140.4380  165.1610 C.ar    1  UNL1        0.0585
     16 C         139.3098  140.2902  166.3660 C.3     1  UNL1        0.0970
     17 C         138.3361  139.2242  165.9594 C.3     1  UNL1        0.0391
     18 C         138.7852  138.0932  165.0823 C.3     1  UNL1        0.0739
     19 C         139.7192  139.0245  159.2291 C.3     1  UNL1        0.0897
     20 N         139.4857  138.7917  160.6924 N.3     1  UNL1       -0.2691
     21 C         140.4601  137.9731  161.4865 C.3     1  UNL1        0.0897
     22 C         140.2266  137.7403  162.9497 C.3     1  UNL1        0.0897
     23 N         139.0187  138.3260  163.6190 N.3     1  UNL1       -0.2703
     24 C         138.0443  139.1446  162.8249 C.3     1  UNL1        0.0897
     25 C         138.2778  139.3774  161.3616 C.3     1  UNL1        0.0897
@<TRIPOS>BOND
     1    19    20    1
     2    20    21    1
     3    21    22    1
     4    22    23    1
     5    23    18    1
     6    18    17    1
     7    17    16    1
     8    16     1    1
     9     1     2    1
    10     2     3   ar
    11     3     4   ar
    12     4     5   ar
    13     5     6   ar
    14     6     7   ar
    15     7     8    1
    16     8     9    1
    17     9    10   ar
    18    10    11   ar
    19    11    12   ar
    20    12    13    1
    21    12    14   ar
    22    14    15   ar
    23    23    24    1
    24    24    25    1
    25    25    20    1
    26    15     1    1
    27     7     2   ar
    28    15     9   ar
@<TRIPOS>MOLECULE
*****
 25 28 0 0 0
SMALL
GASTEIGER

@<TRIPOS>ATOM
      1 N         138.8688  140.3930  165.7747 N.pl3   1  UNL1       -0.2860
      2 C         138.6002  141.3235  164.6291 C.ar    1  UNL1        0.0576
      3 C         137.7293  140.8801  163.4912 C.ar    1  UNL1        0.0153
      4 C         137.4608  141.8106  162.3457 C.ar    1  UNL1        0.0013
      5 C         138.0631  143.1843  162.3382 C.ar    1  UNL1        0.0006
      6 C         138.9339  143.6276  163.4762 C.ar    1  UNL1        0.0077
      7 C         139.2025  142.6972  164.6216 C.ar    1  UNL1        0.0431
      8 S         140.0734  143.1405  165.7597 S.3     1  UNL1       -0.0844
      9 C         140.3420  142.2100  166.9051 C.ar    1  UNL1        0.0431
     10 C         141.2129  142.6533  168.0432 C.ar    1  UNL1        0.0086
     11 C         141.4815  141.7229  169.1886 C.ar    1  UNL1        0.0120
     12 C         140.8792  140.3491  169.1961 C.ar    1  UNL1        0.0589
     13 CL        141.1478  139.4187  170.3416 Cl      1  UNL1       -0.0822
     14 C         140.0083  139.9058  168.0582 C.ar    1  UNL1        0.0267
     15 C         139.7397  140.8363  166.9126 C.ar    1  UNL1        0.0585
     16 C         138.2665  139.0192  165.7821 C.3     1  UNL1        0.0970
     17 C         139.0709  137.8451  165.3087 C.3     1  UNL1        0.0391
     18 C         139.8643  137.9422  164.0395 C.3     1  UNL1        0.0739
     19 C         145.2431  140.6010  164.0599 C.3     1  UNL1        0.0897
     20 N         143.8983  139.9363  164.0548 N.3     1  UNL1       -0.2691
     21 C         143.5768  138.8865  165.0768 C.3     1  UNL1        0.0897
     22 C         142.2321  138.2218  165.0717 C.3     1  UNL1        0.0897
     23 N         141.2091  138.6069  164.0446 N.3     1  UNL1       -0.2703
     24 C         141.5306  139.6567  163.0226 C.3     1  UNL1        0.0897
     25 C         142.8753  140.3214  163.0277 C.3     1  UNL1        0.0897
@<TRIPOS>BOND
     1    19    20    1
     2    20    21    1
     3    21    22    1
     4    22    23    1
     5    23    18    1
     6    18    17    1
     7    17    16    1
     8    16     1    1
     9     1     2    1
    10     2     3   ar
    11     3     4   ar
    12     4     5   ar
    13     5     6   ar
    14     6     7   ar
    15     7     8    1
    16     8     9    1
    17     9    10   ar
    18    10    11   ar
    19    11    12   ar
    20    12    13    1
    21    12    14   ar
    22    14    15   ar
    23    23    24    1
    24    24    25    1
    25    25    20    1
    26    15     1    1
    27     7     2   ar
    28    15     9   ar
@<TRIPOS>MOLECULE
*****
 25 28 0 0 0
SMALL
GASTEIGER

@<TRIPOS>ATOM
      1 N         140.4301  141.7396  165.1103 N.pl3   1  UNL1       -0.2860
      2 C         139.9226  140.3311  165.2032 C.ar    1  UNL1        0.0576
      3 C         138.6642  140.0360  165.9644 C.ar    1  UNL1        0.0153
      4 C         138.1567  138.6276  166.0573 C.ar    1  UNL1        0.0013
      5 C         138.9075  137.5142  165.3890 C.ar    1  UNL1        0.0006
      6 C         140.1659  137.8093  164.6279 C.ar    1  UNL1        0.0077
      7 C         140.6734  139.2177  164.5349 C.ar    1  UNL1        0.0431
      8 S         141.9318  139.5128  163.7737 S.3     1  UNL1       -0.0844
      9 C         142.4393  140.9212  163.6808 C.ar    1  UNL1        0.0431
     10 C         143.6977  141.2163  162.9196 C.ar    1  UNL1        0.0086
     11 C         144.2053  142.6248  162.8267 C.ar    1  UNL1        0.0120
     12 C         143.4544  143.7382  163.4949 C.ar    1  UNL1        0.0589
     13 CL        143.9619  145.1466  163.4020 Cl      1  UNL1       -0.0822
     14 C         142.1961  143.4431  164.2561 C.ar    1  UNL1        0.0267
     15 C         141.6885  142.0346  164.3491 C.ar    1  UNL1        0.0585
     16 C         139.6793  142.8530  165.7785 C.3     1  UNL1        0.0970
     17 C         138.5615  143.5438  165.0552 C.3     1  UNL1        0.0391
     18 C         138.8384  144.7809  164.2534 C.3     1  UNL1        0.0739
     19 C         140.1696  144.3393  158.4196 C.3     1  UNL1        0.0897
     20 N         139.8368  144.4497  159.8781 N.3     1  UNL1       -0.2691
     21 C         139.2254  143.2845  160.5981 C.3     1  UNL1        0.0897
     22 C         138.8926  143.3949  162.0565 C.3     1  UNL1        0.0897
     23 N         139.1712  144.6704  162.7949 N.3     1  UNL1       -0.2703
     24 C         139.7826  145.8356  162.0749 C.3     1  UNL1        0.0897
     25 C         140.1154  145.7253  160.6164 C.3     1  UNL1        0.0897
@<TRIPOS>BOND
     1    19    20    1
     2    20    21    1
     3    21    22    1
     4    22    23    1
     5    23    18    1
     6    18    17    1
     7    17    16    1
     8    16     1    1
     9     1     2    1
    10     2     3   ar
    11     3     4   ar
    12     4     5   ar
    13     5     6   ar
    14     6     7   ar
    15     7     8    1
    16     8     9    1
    17     9    10   ar
    18    10    11   ar
    19    11    12   ar
    20    12    13    1
    21    12    14   ar
    22    14    15   ar
    23    23    24    1
    24    24    25    1
    25    25    20    1
    26    15     1    1
    27     7     2   ar
    28    15     9   ar
@<TRIPOS>MOLECULE
*****
 25 28 0 0 0
SMALL
GASTEIGER

@<TRIPOS>ATOM
      1 N         142.0267  139.5785  165.4687 N.pl3   1  UNL1       -0.2860
      2 C         142.2757  139.0110  164.1027 C.ar    1  UNL1        0.0576
      3 C         143.6121  139.1942  163.4466 C.ar    1  UNL1        0.0153
      4 C         143.8611  138.6268  162.0806 C.ar    1  UNL1        0.0013
      5 C         142.7737  137.8760  161.3707 C.ar    1  UNL1        0.0006
      6 C         141.4373  137.6928  162.0268 C.ar    1  UNL1        0.0077
      7 C         141.1883  138.2602  163.3927 C.ar    1  UNL1        0.0431
      8 S         139.8519  138.0770  164.0489 S.3     1  UNL1       -0.0844
      9 C         139.6029  138.6445  165.4149 C.ar    1  UNL1        0.0431
     10 C         138.2665  138.4612  166.0710 C.ar    1  UNL1        0.0086
     11 C         138.0175  139.0287  167.4370 C.ar    1  UNL1        0.0120
     12 C         139.1049  139.7794  168.1469 C.ar    1  UNL1        0.0589
     13 CL        138.8559  140.3469  169.5129 Cl      1  UNL1       -0.0822
     14 C         140.4413  139.9627  167.4908 C.ar    1  UNL1        0.0267
     15 C         140.6903  139.3952  166.1248 C.ar    1  UNL1        0.0585
     16 C         143.1141  140.3292  166.1786 C.3     1  UNL1        0.0970
     17 C         143.1564  141.8272  166.1143 C.3     1  UNL1        0.0391
     18 C         143.5881  142.5118  164.8514 C.3     1  UNL1        0.0739
     19 C         139.7440  146.0363  161.8848 C.3     1  UNL1        0.0897
     20 N         140.7051  145.1552  162.6264 N.3     1  UNL1       -0.2691
     21 C         140.3641  144.6646  164.0023 C.3     1  UNL1        0.0897
     22 C         141.3251  143.7835  164.7439 C.3     1  UNL1        0.0897
     23 N         142.6271  143.3929  164.1097 N.3     1  UNL1       -0.2703
     24 C         142.9680  143.8835  162.7338 C.3     1  UNL1        0.0897
     25 C         142.0071  144.7646  161.9922 C.3     1  UNL1        0.0897
@<TRIPOS>BOND
     1    19    20    1
     2    20    21    1
     3    21    22    1
     4    22    23    1
     5    23    18    1
     6    18    17    1
     7    17    16    1
     8    16     1    1
     9     1     2    1
    10     2     3   ar
    11     3     4   ar
    12     4     5   ar
    13     5     6   ar
    14     6     7   ar
    15     7     8    1
    16     8     9    1
    17     9    10   ar
    18    10    11   ar
    19    11    12   ar
    20    12    13    1
    21    12    14   ar
    22    14    15   ar
    23    23    24    1
    24    24    25    1
    25    25    20    1
    26    15     1    1
    27     7     2   ar
    28    15     9   ar
@<TRIPOS>MOLECULE
*****
 25 28 0 0 0
SMALL
GASTEIGER

@<TRIPOS>ATOM
      1 N         141.8445  140.5807  167.0169 N.pl3   1  UNL1       -0.2860
      2 C         141.9820  141.2721  168.3410 C.ar    1  UNL1        0.0576
      3 C         143.2388  142.0225  168.6683 C.ar    1  UNL1        0.0153
      4 C         143.3762  142.7139  169.9923 C.ar    1  UNL1        0.0013
      5 C         142.2568  142.6548  170.9890 C.ar    1  UNL1        0.0006
      6 C         140.9999  141.9044  170.6616 C.ar    1  UNL1        0.0077
      7 C         140.8625  141.2131  169.3376 C.ar    1  UNL1        0.0431
      8 S         139.6056  140.4626  169.0102 S.3     1  UNL1       -0.0844
      9 C         139.4682  139.7712  167.6862 C.ar    1  UNL1        0.0431
     10 C         138.2113  139.0208  167.3588 C.ar    1  UNL1        0.0086
     11 C         138.0739  138.3294  166.0348 C.ar    1  UNL1        0.0120
     12 C         139.1934  138.3884  165.0381 C.ar    1  UNL1        0.0589
     13 CL        139.0560  137.6971  163.7141 Cl      1  UNL1       -0.0822
     14 C         140.4502  139.1388  165.3655 C.ar    1  UNL1        0.0267
     15 C         140.5877  139.8303  166.6895 C.ar    1  UNL1        0.0585
     16 C         142.9640  140.6397  166.0202 C.3     1  UNL1        0.0970
     17 C         143.2829  141.9306  165.3261 C.3     1  UNL1        0.0391
     18 C         142.1736  142.8369  164.8812 C.3     1  UNL1        0.0739
     19 C         137.6901  140.6708  161.5334 C.3     1  UNL1        0.0897
     20 N         138.8110  141.2123  162.3704 N.3     1  UNL1       -0.2691
     21 C         140.2345  140.9819  161.9573 C.3     1  UNL1        0.0897
     22 C         141.3553  141.5234  162.7942 C.3     1  UNL1        0.0897
     23 N         141.0527  142.2953  164.0442 N.3     1  UNL1       -0.2703
     24 C         139.6292  142.5257  164.4573 C.3     1  UNL1        0.0897
     25 C         138.5084  141.9842  163.6204 C.3     1  UNL1        0.0897
@<TRIPOS>BOND
     1    19    20    1
     2    20    21    1
     3    21    22    1
     4    22    23    1
     5    23    18    1
     6    18    17    1
     7    17    16    1
     8    16     1    1
     9     1     2    1
    10     2     3   ar
    11     3     4   ar
    12     4     5   ar
    13     5     6   ar
    14     6     7   ar
    15     7     8    1
    16     8     9    1
    17     9    10   ar
    18    10    11   ar
    19    11    12   ar
    20    12    13    1
    21    12    14   ar
    22    14    15   ar
    23    23    24    1
    24    24    25    1
    25    25    20    1
    26    15     1    1
    27     7     2   ar
    28    15     9   ar
@<TRIPOS>MOLECULE
*****
 25 28 0 0 0
SMALL
GASTEIGER

@<TRIPOS>ATOM
      1 N         140.1202  138.7026  163.7023 N.pl3   1  UNL1       -0.2860
      2 C         140.1462  139.1221  165.1423 C.ar    1  UNL1        0.0576
      3 C         138.8666  139.2165  165.9192 C.ar    1  UNL1        0.0153
      4 C         138.8927  139.6359  167.3591 C.ar    1  UNL1        0.0013
      5 C         140.1984  139.9608  168.0221 C.ar    1  UNL1        0.0006
      6 C         141.4780  139.8664  167.2452 C.ar    1  UNL1        0.0077
      7 C         141.4519  139.4470  165.8053 C.ar    1  UNL1        0.0431
      8 S         142.7316  139.3526  165.0283 S.3     1  UNL1       -0.0844
      9 C         142.7055  138.9332  163.5884 C.ar    1  UNL1        0.0431
     10 C         143.9852  138.8388  162.8115 C.ar    1  UNL1        0.0086
     11 C         143.9591  138.4194  161.3715 C.ar    1  UNL1        0.0120
     12 C         142.6534  138.0944  160.7085 C.ar    1  UNL1        0.0589
     13 CL        142.6274  137.6750  159.2686 Cl      1  UNL1       -0.0822
     14 C         141.3738  138.1888  161.4854 C.ar    1  UNL1        0.0267
     15 C         141.3998  138.6082  162.9254 C.ar    1  UNL1        0.0585
     16 C         138.8145  138.3777  163.0393 C.3     1  UNL1        0.0970
     17 C         138.0894  139.4304  162.2545 C.3     1  UNL1        0.0391
     18 C         137.5725  140.6576  162.9449 C.3     1  UNL1        0.0739
     19 C         139.7988  146.0502  161.5433 C.3     1  UNL1        0.0897
     20 N         139.2422  144.7020  161.8937 N.3     1  UNL1       -0.2691
     21 C         138.1845  144.5788  162.9501 C.3     1  UNL1        0.0897
     22 C         137.6279  143.2307  163.3005 C.3     1  UNL1        0.0897
     23 N         138.1291  142.0058  162.5945 N.3     1  UNL1       -0.2703
     24 C         139.1868  142.1291  161.5381 C.3     1  UNL1        0.0897
     25 C         139.7434  143.4771  161.1877 C.3     1  UNL1        0.0897
@<TRIPOS>BOND
     1    19    20    1
     2    20    21    1
     3    21    22    1
     4    22    23    1
     5    23    18    1
     6    18    17    1
     7    17    16    1
     8    16     1    1
     9     1     2    1
    10     2     3   ar
    11     3     4   ar
    12     4     5   ar
    13     5     6   ar
    14     6     7   ar
    15     7     8    1
    16     8     9    1
    17     9    10   ar
    18    10    11   ar
    19    11    12   ar
    20    12    13    1
    21    12    14   ar
    22    14    15   ar
    23    23    24    1
    24    24    25    1
    25    25    20    1
    26    15     1    1
    27     7     2   ar
    28    15     9   ar
@<TRIPOS>MOLECULE
*****
 25 28 0 0 0
SMALL
GASTEIGER

@<TRIPOS>ATOM
      1 N         140.4982  141.6525  165.0629 N.pl3   1  UNL1       -0.2860
      2 C         139.9321  140.2692  165.1899 C.ar    1  UNL1        0.0576
      3 C         138.7375  140.0249  166.0636 C.ar    1  UNL1        0.0153
      4 C         138.1715  138.6417  166.1905 C.ar    1  UNL1        0.0013
      5 C         138.7999  137.5027  165.4437 C.ar    1  UNL1        0.0006
      6 C         139.9945  137.7469  164.5700 C.ar    1  UNL1        0.0077
      7 C         140.5605  139.1302  164.4431 C.ar    1  UNL1        0.0431
      8 S         141.7551  139.3744  163.5694 S.3     1  UNL1       -0.0844
      9 C         142.3212  140.7577  163.4424 C.ar    1  UNL1        0.0431
     10 C         143.5158  141.0020  162.5687 C.ar    1  UNL1        0.0086
     11 C         144.0819  142.3852  162.4418 C.ar    1  UNL1        0.0120
     12 C         143.4534  143.5242  163.1886 C.ar    1  UNL1        0.0589
     13 CL        144.0195  144.9075  163.0617 Cl      1  UNL1       -0.0822
     14 C         142.2589  143.2800  164.0623 C.ar    1  UNL1        0.0267
     15 C         141.6927  141.8967  164.1892 C.ar    1  UNL1        0.0585
     16 C         139.8697  142.7915  165.8097 C.3     1  UNL1        0.0970
     17 C         138.9501  143.7386  165.0976 C.3     1  UNL1        0.0391
     18 C         137.7526  143.2119  164.3638 C.3     1  UNL1        0.0739
     19 C         138.4322  140.5683  159.0205 C.3     1  UNL1        0.0897
     20 N         138.2622  141.2292  160.3564 N.3     1  UNL1       -0.2691
     21 C         138.7514  142.6314  160.5670 C.3     1  UNL1        0.0897
     22 C         138.5816  143.2923  161.9028 C.3     1  UNL1        0.0897
     23 N         137.9225  142.5510  163.0279 N.3     1  UNL1       -0.2703
     24 C         137.4333  141.1487  162.8173 C.3     1  UNL1        0.0897
     25 C         137.6032  140.4878  161.4815 C.3     1  UNL1        0.0897
@<TRIPOS>BOND
     1    19    20    1
     2    20    21    1
     3    21    22    1
     4    22    23    1
     5    23    18    1
     6    18    17    1
     7    17    16    1
     8    16     1    1
     9     1     2    1
    10     2     3   ar
    11     3     4   ar
    12     4     5   ar
    13     5     6   ar
    14     6     7   ar
    15     7     8    1
    16     8     9    1
    17     9    10   ar
    18    10    11   ar
    19    11    12   ar
    20    12    13    1
    21    12    14   ar
    22    14    15   ar
    23    23    24    1
    24    24    25    1
    25    25    20    1
    26    15     1    1
    27     7     2   ar
    28    15     9   ar
