@<TRIPOS>MOLECULE
*****
 23 25 0 0 0
SMALL
GASTEIGER

@<TRIPOS>ATOM
      1 C         143.7582  142.9544  164.7070 C.3     1  UNL1        0.0064
      2 C         143.0390  143.8480  163.7404 C.3     1  UNL1        0.0261
      3 C         141.5703  144.1043  163.9062 C.ar    1  UNL1       -0.0258
      4 C         140.8512  144.9979  162.9396 C.ar    1  UNL1       -0.0046
      5 C         139.3826  145.2541  163.1053 C.ar    1  UNL1       -0.0003
      6 C         138.6331  144.6167  164.2376 C.ar    1  UNL1       -0.0003
      7 C         139.3523  143.7231  165.2042 C.ar    1  UNL1       -0.0043
      8 C         140.8209  143.4669  165.0384 C.ar    1  UNL1       -0.0224
      9 C         141.5401  142.5733  166.0050 C.3     1  UNL1        0.0443
     10 C         143.0087  142.3170  165.8393 C.3     1  UNL1        0.0091
     11 C         140.7907  141.9359  167.1373 C.ar    1  UNL1       -0.0175
     12 C         140.1782  140.5779  166.9611 C.ar    1  UNL1       -0.0030
     13 C         139.4288  139.9406  168.0934 C.ar    1  UNL1        0.0119
     14 C         139.2918  140.6612  169.4019 C.ar    1  UNL1        0.0682
     15 CL        138.5423  140.0238  170.5342 Cl      1  UNL1       -0.0814
     16 C         139.9042  142.0190  169.5780 C.ar    1  UNL1        0.0679
     17 CL        139.7672  142.7396  170.8865 Cl      1  UNL1       -0.0814
     18 C         140.6536  142.6564  168.4457 C.ar    1  UNL1        0.0083
     19 C         145.2268  142.6982  164.5413 C.3     1  UNL1        0.0172
     20 N         145.7532  142.1459  162.0578 N.3     1  UNL1       -0.3211
     21 C         145.7067  141.7322  163.4989 C.3     1  UNL1        0.0651
     22 H         146.1018  141.3714  161.4929 H       1  UNL1        0.1189
     23 H         146.3740  142.9486  161.9544 H       1  UNL1        0.1189
@<TRIPOS>BOND
     1    20    21    1
     2    21    19    1
     3     1    19    1
     4     1     2    1
     5     2     3    1
     6     3     4   ar
     7     4     5   ar
     8     5     6   ar
     9     6     7   ar
    10     7     8   ar
    11     8     9    1
    12     9    11    1
    13    11    12   ar
    14    12    13   ar
    15    13    14   ar
    16    14    15    1
    17    14    16   ar
    18    16    17    1
    19    16    18   ar
    20     9    10    1
    21    10     1    1
    22     8     3   ar
    23    18    11   ar
    24    20    22    1
    25    20    23    1
@<TRIPOS>MOLECULE
*****
 23 25 0 0 0
SMALL
GASTEIGER

@<TRIPOS>ATOM
      1 C         140.1240  141.4011  169.2197 C.3     1  UNL1        0.0064
      2 C         139.2902  140.2397  168.7658 C.3     1  UNL1        0.0261
      3 C         139.2681  139.8533  167.3166 C.ar    1  UNL1       -0.0258
      4 C         138.4344  138.6919  166.8627 C.ar    1  UNL1       -0.0046
      5 C         138.4123  138.3055  165.4135 C.ar    1  UNL1       -0.0003
      6 C         139.2240  139.0804  164.4182 C.ar    1  UNL1       -0.0003
      7 C         140.0578  140.2417  164.8721 C.ar    1  UNL1       -0.0043
      8 C         140.0798  140.6282  166.3213 C.ar    1  UNL1       -0.0224
      9 C         140.9136  141.7896  166.7752 C.3     1  UNL1        0.0443
     10 C         140.9357  142.1760  168.2244 C.3     1  UNL1        0.0091
     11 C         141.7253  142.5645  165.7799 C.ar    1  UNL1       -0.0175
     12 C         143.1936  142.2932  165.6358 C.ar    1  UNL1       -0.0030
     13 C         144.0053  143.0682  164.6405 C.ar    1  UNL1        0.0119
     14 C         143.3488  144.1143  163.7893 C.ar    1  UNL1        0.0682
     15 CL        144.1605  144.8893  162.7940 Cl      1  UNL1       -0.0814
     16 C         141.8806  144.3856  163.9334 C.ar    1  UNL1        0.0679
     17 CL        141.2240  145.4318  163.0822 Cl      1  UNL1       -0.0814
     18 C         141.0689  143.6106  164.9287 C.ar    1  UNL1        0.0083
     19 C         140.1460  141.7876  170.6689 C.3     1  UNL1        0.0172
     20 N         142.2009  140.6469  171.7761 N.3     1  UNL1       -0.3211
     21 C         141.4529  141.8908  171.3978 C.3     1  UNL1        0.0651
     22 H         143.0611  140.9017  172.2614 H       1  UNL1        0.1189
     23 H         142.4293  140.1181  170.9343 H       1  UNL1        0.1189
@<TRIPOS>BOND
     1    20    21    1
     2    21    19    1
     3     1    19    1
     4     1     2    1
     5     2     3    1
     6     3     4   ar
     7     4     5   ar
     8     5     6   ar
     9     6     7   ar
    10     7     8   ar
    11     8     9    1
    12     9    11    1
    13    11    12   ar
    14    12    13   ar
    15    13    14   ar
    16    14    15    1
    17    14    16   ar
    18    16    17    1
    19    16    18   ar
    20     9    10    1
    21    10     1    1
    22     8     3   ar
    23    18    11   ar
    24    20    22    1
    25    20    23    1
@<TRIPOS>MOLECULE
*****
 23 25 0 0 0
SMALL
GASTEIGER

@<TRIPOS>ATOM
      1 C         139.1154  139.4810  166.4189 C.3     1  UNL1        0.0064
      2 C         138.9555  139.6791  167.8971 C.3     1  UNL1        0.0261
      3 C         139.6515  140.8186  168.5807 C.ar    1  UNL1       -0.0258
      4 C         139.4916  141.0168  170.0589 C.ar    1  UNL1       -0.0046
      5 C         140.1876  142.1562  170.7424 C.ar    1  UNL1       -0.0003
      6 C         141.0435  143.0975  169.9478 C.ar    1  UNL1       -0.0003
      7 C         141.2034  142.8993  168.4696 C.ar    1  UNL1       -0.0043
      8 C         140.5074  141.7599  167.7860 C.ar    1  UNL1       -0.0224
      9 C         140.6673  141.5616  166.3078 C.3     1  UNL1        0.0443
     10 C         139.9713  140.4222  165.6242 C.3     1  UNL1        0.0091
     11 C         141.5232  142.5029  165.5131 C.ar    1  UNL1       -0.0175
     12 C         143.0175  142.3814  165.5630 C.ar    1  UNL1       -0.0030
     13 C         143.8734  143.3226  164.7683 C.ar    1  UNL1        0.0119
     14 C         143.2350  144.3854  163.9238 C.ar    1  UNL1        0.0682
     15 CL        144.0909  145.3266  163.1291 Cl      1  UNL1       -0.0814
     16 C         141.7408  144.5068  163.8740 C.ar    1  UNL1        0.0679
     17 CL        141.1024  145.5696  163.0295 Cl      1  UNL1       -0.0814
     18 C         140.8849  143.5656  164.6686 C.ar    1  UNL1        0.0083
     19 C         138.4194  138.3415  165.7353 C.3     1  UNL1        0.0172
     20 N         136.7051  137.5123  167.5025 N.3     1  UNL1       -0.3211
     21 C         137.8268  137.2287  166.5479 C.3     1  UNL1        0.0651
     22 H         136.4273  136.6478  167.9671 H       1  UNL1        0.1189
     23 H         135.9101  137.8932  166.9894 H       1  UNL1        0.1189
@<TRIPOS>BOND
     1    20    21    1
     2    21    19    1
     3     1    19    1
     4     1     2    1
     5     2     3    1
     6     3     4   ar
     7     4     5   ar
     8     5     6   ar
     9     6     7   ar
    10     7     8   ar
    11     8     9    1
    12     9    11    1
    13    11    12   ar
    14    12    13   ar
    15    13    14   ar
    16    14    15    1
    17    14    16   ar
    18    16    17    1
    19    16    18   ar
    20     9    10    1
    21    10     1    1
    22     8     3   ar
    23    18    11   ar
    24    20    22    1
    25    20    23    1
@<TRIPOS>MOLECULE
*****
 23 25 0 0 0
SMALL
GASTEIGER

@<TRIPOS>ATOM
      1 C         143.8527  139.8221  164.4639 C.3     1  UNL1        0.0064
      2 C         143.0100  138.8780  163.6587 C.3     1  UNL1        0.0261
      3 C         141.5893  138.6122  164.0601 C.ar    1  UNL1       -0.0258
      4 C         140.7465  137.6681  163.2550 C.ar    1  UNL1       -0.0046
      5 C         139.3259  137.4024  163.6564 C.ar    1  UNL1       -0.0003
      6 C         138.7480  138.0809  164.8629 C.ar    1  UNL1       -0.0003
      7 C         139.5907  139.0250  165.6681 C.ar    1  UNL1       -0.0043
      8 C         141.0114  139.2907  165.2667 C.ar    1  UNL1       -0.0224
      9 C         141.8542  140.2349  166.0718 C.3     1  UNL1        0.0443
     10 C         143.2749  140.5005  165.6704 C.3     1  UNL1        0.0091
     11 C         141.2763  140.9133  167.2784 C.ar    1  UNL1       -0.0175
     12 C         140.9689  142.3810  167.2383 C.ar    1  UNL1       -0.0030
     13 C         140.3910  143.0594  168.4448 C.ar    1  UNL1        0.0119
     14 C         140.1206  142.2702  169.6915 C.ar    1  UNL1        0.0682
     15 CL        139.5427  142.9487  170.8980 Cl      1  UNL1       -0.0814
     16 C         140.4280  140.8027  169.7315 C.ar    1  UNL1        0.0679
     17 CL        140.1576  140.0134  170.9782 Cl      1  UNL1       -0.0814
     18 C         141.0059  140.1242  168.5250 C.ar    1  UNL1        0.0083
     19 C         145.2735  140.0878  164.0625 C.3     1  UNL1        0.0172
     20 N         145.7892  142.0475  162.4367 N.3     1  UNL1       -0.3211
     21 C         145.7365  141.4955  163.8304 C.3     1  UNL1        0.0651
     22 H         146.1244  143.0105  162.4649 H       1  UNL1        0.1189
     23 H         144.8557  142.0243  162.0263 H       1  UNL1        0.1189
@<TRIPOS>BOND
     1    20    21    1
     2    21    19    1
     3     1    19    1
     4     1     2    1
     5     2     3    1
     6     3     4   ar
     7     4     5   ar
     8     5     6   ar
     9     6     7   ar
    10     7     8   ar
    11     8     9    1
    12     9    11    1
    13    11    12   ar
    14    12    13   ar
    15    13    14   ar
    16    14    15    1
    17    14    16   ar
    18    16    17    1
    19    16    18   ar
    20     9    10    1
    21    10     1    1
    22     8     3   ar
    23    18    11   ar
    24    20    22    1
    25    20    23    1
@<TRIPOS>MOLECULE
*****
 23 25 0 0 0
SMALL
GASTEIGER

@<TRIPOS>ATOM
      1 C         138.9877  139.3878  164.5415 C.3     1  UNL1        0.0064
      2 C         138.2489  140.4178  163.7395 C.3     1  UNL1        0.0261
      3 C         138.3802  141.8720  164.0833 C.ar    1  UNL1       -0.0258
      4 C         137.6414  142.9020  163.2814 C.ar    1  UNL1       -0.0046
      5 C         137.7727  144.3561  163.6252 C.ar    1  UNL1       -0.0003
      6 C         138.6429  144.7802  164.7711 C.ar    1  UNL1       -0.0003
      7 C         139.3817  143.7502  165.5730 C.ar    1  UNL1       -0.0043
      8 C         139.2504  142.2961  165.2292 C.ar    1  UNL1       -0.0224
      9 C         139.9892  141.2660  166.0312 C.3     1  UNL1        0.0443
     10 C         139.8579  139.8119  165.6873 C.3     1  UNL1        0.0091
     11 C         140.8594  141.6901  167.1770 C.ar    1  UNL1       -0.0175
     12 C         142.3119  141.9856  166.9464 C.ar    1  UNL1       -0.0030
     13 C         143.1820  142.4097  168.0922 C.ar    1  UNL1        0.0119
     14 C         142.5997  142.5383  169.4686 C.ar    1  UNL1        0.0682
     15 CL        143.4699  142.9624  170.6145 Cl      1  UNL1       -0.0814
     16 C         141.1474  142.2428  169.6992 C.ar    1  UNL1        0.0679
     17 CL        140.5651  142.3714  171.0756 Cl      1  UNL1       -0.0814
     18 C         140.2772  141.8187  168.5534 C.ar    1  UNL1        0.0083
     19 C         138.8563  137.9336  164.1976 C.3     1  UNL1        0.0172
     20 N         139.4485  137.6150  161.6882 N.3     1  UNL1       -0.3211
     21 C         139.7275  137.3326  163.1347 C.3     1  UNL1        0.0651
     22 H         140.1334  137.1295  161.1088 H       1  UNL1        0.1189
     23 H         139.5111  138.6190  161.5195 H       1  UNL1        0.1189
@<TRIPOS>BOND
     1    20    21    1
     2    21    19    1
     3     1    19    1
     4     1     2    1
     5     2     3    1
     6     3     4   ar
     7     4     5   ar
     8     5     6   ar
     9     6     7   ar
    10     7     8   ar
    11     8     9    1
    12     9    11    1
    13    11    12   ar
    14    12    13   ar
    15    13    14   ar
    16    14    15    1
    17    14    16   ar
    18    16    17    1
    19    16    18   ar
    20     9    10    1
    21    10     1    1
    22     8     3   ar
    23    18    11   ar
    24    20    22    1
    25    20    23    1
@<TRIPOS>MOLECULE
*****
 23 25 0 0 0
SMALL
GASTEIGER

@<TRIPOS>ATOM
      1 C         139.0536  139.8638  166.7962 C.3     1  UNL1        0.0064
      2 C         139.2910  139.9381  168.2754 C.3     1  UNL1        0.0261
      3 C         140.4110  140.7782  168.8140 C.ar    1  UNL1       -0.0258
      4 C         140.6485  140.8525  170.2932 C.ar    1  UNL1       -0.0046
      5 C         141.7684  141.6925  170.8317 C.ar    1  UNL1       -0.0003
      6 C         142.6510  142.4581  169.8910 C.ar    1  UNL1       -0.0003
      7 C         142.4136  142.3838  168.4118 C.ar    1  UNL1       -0.0043
      8 C         141.2936  141.5438  167.8733 C.ar    1  UNL1       -0.0224
      9 C         141.0561  141.4694  166.3940 C.3     1  UNL1        0.0443
     10 C         139.9362  140.6294  165.8555 C.3     1  UNL1        0.0091
     11 C         141.9387  142.2350  165.4534 C.ar    1  UNL1       -0.0175
     12 C         141.4569  143.5227  164.8535 C.ar    1  UNL1       -0.0030
     13 C         142.3395  144.2884  163.9128 C.ar    1  UNL1        0.0119
     14 C         143.7038  143.7663  163.5720 C.ar    1  UNL1        0.0682
     15 CL        144.5864  144.5319  162.6313 Cl      1  UNL1       -0.0814
     16 C         144.1855  142.4787  164.1718 C.ar    1  UNL1        0.0679
     17 CL        145.5499  141.9566  163.8310 Cl      1  UNL1       -0.0814
     18 C         143.3030  141.7130  165.1125 C.ar    1  UNL1        0.0083
     19 C         137.9336  139.0238  166.2576 C.3     1  UNL1        0.0172
     20 N         136.5645  137.4578  167.8143 N.3     1  UNL1       -0.3211
     21 C         137.6768  137.6607  166.8287 C.3     1  UNL1        0.0651
     22 H         136.5340  136.4779  168.0956 H       1  UNL1        0.1189
     23 H         135.6768  137.7155  167.3830 H       1  UNL1        0.1189
@<TRIPOS>BOND
     1    20    21    1
     2    21    19    1
     3     1    19    1
     4     1     2    1
     5     2     3    1
     6     3     4   ar
     7     4     5   ar
     8     5     6   ar
     9     6     7   ar
    10     7     8   ar
    11     8     9    1
    12     9    11    1
    13    11    12   ar
    14    12    13   ar
    15    13    14   ar
    16    14    15    1
    17    14    16   ar
    18    16    17    1
    19    16    18   ar
    20     9    10    1
    21    10     1    1
    22     8     3   ar
    23    18    11   ar
    24    20    22    1
    25    20    23    1
@<TRIPOS>MOLECULE
*****
 23 25 0 0 0
SMALL
GASTEIGER

@<TRIPOS>ATOM
      1 C         140.4577  141.8703  168.6964 C.3     1  UNL1        0.0064
      2 C         139.9268  140.4801  168.5081 C.3     1  UNL1        0.0261
      3 C         139.4288  140.0433  167.1622 C.ar    1  UNL1       -0.0258
      4 C         138.8980  138.6531  166.9739 C.ar    1  UNL1       -0.0046
      5 C         138.4001  138.2163  165.6281 C.ar    1  UNL1       -0.0003
      6 C         138.4329  139.1698  164.4706 C.ar    1  UNL1       -0.0003
      7 C         138.9638  140.5600  164.6589 C.ar    1  UNL1       -0.0043
      8 C         139.4617  140.9967  166.0047 C.ar    1  UNL1       -0.0224
      9 C         139.9926  142.3870  166.1931 C.3     1  UNL1        0.0443
     10 C         140.4905  142.8237  167.5389 C.3     1  UNL1        0.0091
     11 C         140.0255  143.3404  165.0355 C.ar    1  UNL1       -0.0175
     12 C         138.7948  144.1147  164.6665 C.ar    1  UNL1       -0.0030
     13 C         138.8277  145.0682  163.5090 C.ar    1  UNL1        0.0119
     14 C         140.0912  145.2474  162.7205 C.ar    1  UNL1        0.0682
     15 CL        140.1241  146.2008  161.5630 Cl      1  UNL1       -0.0814
     16 C         141.3217  144.4731  163.0896 C.ar    1  UNL1        0.0679
     17 CL        142.5852  144.6523  162.3012 Cl      1  UNL1       -0.0814
     18 C         141.2889  143.5196  164.2471 C.ar    1  UNL1        0.0083
     19 C         140.9557  142.3071  170.0422 C.3     1  UNL1        0.0172
     20 N         142.1555  140.8805  171.8519 N.3     1  UNL1       -0.3211
     21 C         140.8906  141.3654  171.2079 C.3     1  UNL1        0.0651
     22 H         141.9258  140.2529  172.6225 H       1  UNL1        0.1189
     23 H         142.6828  141.6777  172.2083 H       1  UNL1        0.1189
@<TRIPOS>BOND
     1    20    21    1
     2    21    19    1
     3     1    19    1
     4     1     2    1
     5     2     3    1
     6     3     4   ar
     7     4     5   ar
     8     5     6   ar
     9     6     7   ar
    10     7     8   ar
    11     8     9    1
    12     9    11    1
    13    11    12   ar
    14    12    13   ar
    15    13    14   ar
    16    14    15    1
    17    14    16   ar
    18    16    17    1
    19    16    18   ar
    20     9    10    1
    21    10     1    1
    22     8     3   ar
    23    18    11   ar
    24    20    22    1
    25    20    23    1
@<TRIPOS>MOLECULE
*****
 23 25 0 0 0
SMALL
GASTEIGER

@<TRIPOS>ATOM
      1 C         140.8017  141.5124  168.6880 C.3     1  UNL1        0.0064
      2 C         141.6647  140.3169  168.4128 C.3     1  UNL1        0.0261
      3 C         142.2240  140.0959  167.0386 C.ar    1  UNL1       -0.0258
      4 C         143.0871  138.9004  166.7634 C.ar    1  UNL1       -0.0046
      5 C         143.6463  138.6795  165.3892 C.ar    1  UNL1       -0.0003
      6 C         143.3424  139.6542  164.2902 C.ar    1  UNL1       -0.0003
      7 C         142.4794  140.8497  164.5654 C.ar    1  UNL1       -0.0043
      8 C         141.9202  141.0706  165.9396 C.ar    1  UNL1       -0.0224
      9 C         141.0571  142.2662  166.2149 C.3     1  UNL1        0.0443
     10 C         140.4979  142.4871  167.5891 C.3     1  UNL1        0.0091
     11 C         140.7532  143.2408  165.1159 C.ar    1  UNL1       -0.0175
     12 C         141.8450  144.1033  164.5553 C.ar    1  UNL1       -0.0030
     13 C         141.5412  145.0780  163.4563 C.ar    1  UNL1        0.0119
     14 C         140.1456  145.1901  162.9180 C.ar    1  UNL1        0.0682
     15 CL        139.8417  146.1648  161.8190 Cl      1  UNL1       -0.0814
     16 C         139.0539  144.3277  163.4786 C.ar    1  UNL1        0.0679
     17 CL        137.6583  144.4398  162.9402 Cl      1  UNL1       -0.0814
     18 C         139.3577  143.3530  164.5776 C.ar    1  UNL1        0.0083
     19 C         140.2424  141.7333  170.0623 C.3     1  UNL1        0.0172
     20 N         142.0237  142.2302  171.8871 N.3     1  UNL1       -0.3211
     21 C         141.0226  141.3004  171.2680 C.3     1  UNL1        0.0651
     22 H         142.4576  141.7763  172.6909 H       1  UNL1        0.1189
     23 H         141.5533  143.0828  172.1910 H       1  UNL1        0.1189
@<TRIPOS>BOND
     1    20    21    1
     2    21    19    1
     3     1    19    1
     4     1     2    1
     5     2     3    1
     6     3     4   ar
     7     4     5   ar
     8     5     6   ar
     9     6     7   ar
    10     7     8   ar
    11     8     9    1
    12     9    11    1
    13    11    12   ar
    14    12    13   ar
    15    13    14   ar
    16    14    15    1
    17    14    16   ar
    18    16    17    1
    19    16    18   ar
    20     9    10    1
    21    10     1    1
    22     8     3   ar
    23    18    11   ar
    24    20    22    1
    25    20    23    1
@<TRIPOS>MOLECULE
*****
 23 25 0 0 0
SMALL
GASTEIGER

@<TRIPOS>ATOM
      1 C         139.1230  143.1803  164.1853 C.3     1  UNL1        0.0064
      2 C         138.5460  142.2598  163.1510 C.3     1  UNL1        0.0261
      3 C         138.6674  140.7740  163.3179 C.ar    1  UNL1       -0.0258
      4 C         138.0905  139.8535  162.2836 C.ar    1  UNL1       -0.0046
      5 C         138.2119  138.3678  162.4506 C.ar    1  UNL1       -0.0003
      6 C         138.9102  137.8026  163.6518 C.ar    1  UNL1       -0.0003
      7 C         139.4872  138.7231  164.6860 C.ar    1  UNL1       -0.0043
      8 C         139.3658  140.2088  164.5191 C.ar    1  UNL1       -0.0224
      9 C         139.9427  141.1294  165.5534 C.3     1  UNL1        0.0443
     10 C         139.8213  142.6151  165.3865 C.3     1  UNL1        0.0091
     11 C         140.6411  140.5642  166.7546 C.ar    1  UNL1       -0.0175
     12 C         142.0294  140.0113  166.6239 C.ar    1  UNL1       -0.0030
     13 C         142.7277  139.4461  167.8251 C.ar    1  UNL1        0.0119
     14 C         142.0377  139.4338  169.1570 C.ar    1  UNL1        0.0682
     15 CL        142.7361  138.8686  170.3582 Cl      1  UNL1       -0.0814
     16 C         140.6495  139.9867  169.2877 C.ar    1  UNL1        0.0679
     17 CL        139.9596  139.9745  170.6196 Cl      1  UNL1       -0.0814
     18 C         139.9512  140.5519  168.0865 C.ar    1  UNL1        0.0083
     19 C         139.0016  144.6661  164.0184 C.3     1  UNL1        0.0172
     20 N         140.4297  146.2316  162.5153 N.3     1  UNL1       -0.3211
     21 C         139.2700  145.2952  162.6834 C.3     1  UNL1        0.0651
     22 H         140.4620  146.5630  161.5512 H       1  UNL1        0.1189
     23 H         141.2969  145.7419  162.7357 H       1  UNL1        0.1189
@<TRIPOS>BOND
     1    20    21    1
     2    21    19    1
     3     1    19    1
     4     1     2    1
     5     2     3    1
     6     3     4   ar
     7     4     5   ar
     8     5     6   ar
     9     6     7   ar
    10     7     8   ar
    11     8     9    1
    12     9    11    1
    13    11    12   ar
    14    12    13   ar
    15    13    14   ar
    16    14    15    1
    17    14    16   ar
    18    16    17    1
    19    16    18   ar
    20     9    10    1
    21    10     1    1
    22     8     3   ar
    23    18    11   ar
    24    20    22    1
    25    20    23    1
