@<TRIPOS>MOLECULE
*****
 37 42 0 0 0
SMALL
GASTEIGER

@<TRIPOS>ATOM
      1 C         143.1900  143.1931  159.7326 C.3     1  UNL1        0.2068
      2 C         143.0474  141.7016  159.6608 C.3     1  UNL1        0.0646
      3 C         144.0121  140.8197  160.3967 C.3     1  UNL1        0.0759
      4 C         143.3333  139.8781  164.7445 C.3     1  UNL1        0.0464
      5 C         142.2567  139.5957  163.7389 C.3     1  UNL1        0.0234
      6 C         142.4830  139.9095  162.2897 C.3     1  UNL1        0.0725
      7 N         143.7858  140.5058  161.8460 N.3     1  UNL1       -0.2725
      8 C         144.8625  140.7882  162.8515 C.3     1  UNL1        0.0725
      9 C         144.6362  140.4743  164.3008 C.3     1  UNL1        0.0234
     10 F         139.7820  141.9273  170.5601 F       1  UNL1       -0.2041
     11 C         140.5887  141.3890  169.4157 C.ar    1  UNL1        0.1433
     12 C         140.5091  142.0438  168.0686 C.ar    1  UNL1        0.0299
     13 C         141.3157  141.5055  166.9242 C.ar    1  UNL1        0.0067
     14 C         142.2020  140.3125  167.1270 C.ar    1  UNL1        0.0540
     15 C         143.1070  139.5642  166.1937 C.ar    1  UNL1        0.1003
     16 N         143.7460  138.4470  166.9641 N.ar    1  UNL1       -0.0814
     17 O         143.2359  138.5047  168.3735 O.2     1  UNL1       -0.3536
     18 C         142.2817  139.6578  168.4742 C.ar    1  UNL1        0.1787
     19 C         141.4750  140.1960  169.6185 C.ar    1  UNL1        0.0698
     20 O         143.4335  143.8605  161.0536 O.3     1  UNL1       -0.4754
     21 C         142.2911  144.0959  161.9968 C.ar    1  UNL1        0.1385
     22 C         141.0798  144.8502  161.5342 C.ar    1  UNL1        0.0366
     23 C         139.9375  145.0856  162.4774 C.ar    1  UNL1       -0.0011
     24 C         140.0064  144.5667  163.8831 C.ar    1  UNL1       -0.0215
     25 C         141.2177  143.8124  164.3457 C.ar    1  UNL1       -0.0011
     26 C         142.3601  143.5771  163.4025 C.ar    1  UNL1        0.0366
     27 C         138.8641  144.8021  164.8263 C.3     1  UNL1        0.0361
     28 C         137.6998  143.8566  164.8448 C.3     1  UNL1        0.0900
     29 C         137.8413  142.4810  164.2636 C.ar    1  UNL1        0.2060
     30 N         137.4625  142.0686  162.8720 N.ar    1  UNL1       -0.2121
     31 C         137.7736  140.6090  162.7203 C.ar    1  UNL1        0.1185
     32 C         137.6107  139.6625  161.5681 C.ar    1  UNL1        0.0223
     33 C         138.0188  138.2265  161.7136 C.ar    1  UNL1        0.0017
     34 C         138.5899  137.7369  163.0114 C.ar    1  UNL1        0.0032
     35 C         138.7528  138.6833  164.1636 C.ar    1  UNL1        0.0391
     36 C         138.3447  140.1194  164.0180 C.ar    1  UNL1        0.1644
     37 O         138.3865  141.2763  164.9718 O.2     1  UNL1       -0.4384
@<TRIPOS>BOND
     1    10    11    1
     2    11    12   ar
     3    12    13   ar
     4    13    14   ar
     5    14    15   ar
     6    15     4    1
     7     4     5    1
     8     5     6    1
     9     6     7    1
    10     7     3    1
    11     3     2    1
    12     2     1    1
    13     1    20    1
    14    20    21    1
    15    21    22   ar
    16    22    23   ar
    17    23    24   ar
    18    24    27    1
    19    27    28    1
    20    28    29    1
    21    29    30   ar
    22    30    31   ar
    23    31    32   ar
    24    32    33   ar
    25    33    34   ar
    26    34    35   ar
    27    35    36   ar
    28    36    37   ar
    29    24    25   ar
    30    25    26   ar
    31     7     8    1
    32     8     9    1
    33    15    16   ar
    34    16    17   ar
    35    17    18   ar
    36    18    19   ar
    37    19    11   ar
    38    18    14   ar
    39     9     4    1
    40    26    21   ar
    41    37    29   ar
    42    36    31   ar
@<TRIPOS>MOLECULE
*****
 37 42 0 0 0
SMALL
GASTEIGER

@<TRIPOS>ATOM
      1 C         140.3381  138.2416  160.6238 C.3     1  UNL1        0.2068
      2 C         139.0841  138.9701  161.0068 C.3     1  UNL1        0.0646
      3 C         138.1942  138.4178  162.0806 C.3     1  UNL1        0.0759
      4 C         138.8827  139.5557  166.3796 C.3     1  UNL1        0.0464
      5 C         139.0855  138.1367  165.9376 C.3     1  UNL1        0.0234
      6 C         138.8560  137.7575  164.5047 C.3     1  UNL1        0.0725
      7 N         138.4237  138.7971  163.5136 N.3     1  UNL1       -0.2725
      8 C         138.2209  140.2161  163.9556 C.3     1  UNL1        0.0725
      9 C         138.4504  140.5954  165.3886 C.3     1  UNL1        0.0234
     10 F         143.1104  143.3057  170.7035 F       1  UNL1       -0.2041
     11 C         142.1436  142.4768  169.9109 C.ar    1  UNL1        0.1433
     12 C         142.2930  142.3687  168.4223 C.ar    1  UNL1        0.0299
     13 C         141.3262  141.5399  167.6297 C.ar    1  UNL1        0.0067
     14 C         140.2099  140.8192  168.3256 C.ar    1  UNL1        0.0540
     15 C         139.1122  139.9350  167.8126 C.ar    1  UNL1        0.1003
     16 N         138.2843  139.4966  168.9842 N.ar    1  UNL1       -0.0814
     17 O         138.8703  140.1099  170.2212 O.2     1  UNL1       -0.3536
     18 C         140.0604  140.9274  169.8142 C.ar    1  UNL1        0.1787
     19 C         141.0273  141.7562  170.6068 C.ar    1  UNL1        0.0698
     20 O         141.2447  137.6981  161.6881 O.3     1  UNL1       -0.4754
     21 C         142.3421  138.5541  162.2474 C.ar    1  UNL1        0.1385
     22 C         142.6143  138.5553  163.7226 C.ar    1  UNL1        0.0366
     23 C         143.7117  139.4113  164.2819 C.ar    1  UNL1       -0.0011
     24 C         144.5370  140.2659  163.3662 C.ar    1  UNL1       -0.0215
     25 C         144.2648  140.2647  161.8911 C.ar    1  UNL1       -0.0011
     26 C         143.1673  139.4087  161.3317 C.ar    1  UNL1        0.0366
     27 C         145.6344  141.1219  163.9255 C.3     1  UNL1        0.0361
     28 C         145.3704  142.5623  164.2505 C.3     1  UNL1        0.0900
     29 C         143.9954  143.1328  164.0667 C.ar    1  UNL1        0.2060
     30 N         143.5150  143.9097  162.8768 N.ar    1  UNL1       -0.2121
     31 C         142.0820  144.2837  163.1152 C.ar    1  UNL1        0.1185
     32 C         141.0938  145.0506  162.2874 C.ar    1  UNL1        0.0223
     33 C         139.7005  145.2719  162.7967 C.ar    1  UNL1        0.0017
     34 C         139.2952  144.7262  164.1340 C.ar    1  UNL1        0.0032
     35 C         140.2834  143.9593  164.9617 C.ar    1  UNL1        0.0391
     36 C         141.6768  143.7380  164.4523 C.ar    1  UNL1        0.1644
     37 O         142.8593  143.0268  165.0404 O.2     1  UNL1       -0.4384
@<TRIPOS>BOND
     1    10    11    1
     2    11    12   ar
     3    12    13   ar
     4    13    14   ar
     5    14    15   ar
     6    15     4    1
     7     4     5    1
     8     5     6    1
     9     6     7    1
    10     7     3    1
    11     3     2    1
    12     2     1    1
    13     1    20    1
    14    20    21    1
    15    21    22   ar
    16    22    23   ar
    17    23    24   ar
    18    24    27    1
    19    27    28    1
    20    28    29    1
    21    29    30   ar
    22    30    31   ar
    23    31    32   ar
    24    32    33   ar
    25    33    34   ar
    26    34    35   ar
    27    35    36   ar
    28    36    37   ar
    29    24    25   ar
    30    25    26   ar
    31     7     8    1
    32     8     9    1
    33    15    16   ar
    34    16    17   ar
    35    17    18   ar
    36    18    19   ar
    37    19    11   ar
    38    18    14   ar
    39     9     4    1
    40    26    21   ar
    41    37    29   ar
    42    36    31   ar
@<TRIPOS>MOLECULE
*****
 37 42 0 0 0
SMALL
GASTEIGER

@<TRIPOS>ATOM
      1 C         143.2295  139.2983  159.8261 C.3     1  UNL1        0.2068
      2 C         143.2806  140.7936  159.7186 C.3     1  UNL1        0.0646
      3 C         143.8668  141.6062  160.8349 C.3     1  UNL1        0.0759
      4 C         143.3409  140.2773  165.1020 C.3     1  UNL1        0.0464
      5 C         142.2441  141.0318  164.4108 C.3     1  UNL1        0.0234
      6 C         142.4194  141.4747  162.9884 C.3     1  UNL1        0.0725
      7 N         143.6915  141.1632  162.2572 N.3     1  UNL1       -0.2725
      8 C         144.7884  140.4088  162.9485 C.3     1  UNL1        0.0725
      9 C         144.6131  139.9659  164.3708 C.3     1  UNL1        0.0234
     10 F         141.0398  142.3597  171.5051 F       1  UNL1       -0.2041
     11 C         141.5578  141.7924  170.2168 C.ar    1  UNL1        0.1433
     12 C         141.5455  142.6276  168.9709 C.ar    1  UNL1        0.0299
     13 C         142.0635  142.0604  167.6825 C.ar    1  UNL1        0.0067
     14 C         142.5938  140.6579  167.6400 C.ar    1  UNL1        0.0540
     15 C         143.1656  139.8344  166.5243 C.ar    1  UNL1        0.1003
     16 N         143.5313  138.4902  167.0806 N.ar    1  UNL1       -0.0814
     17 O         143.1855  138.4830  168.5402 O.2     1  UNL1       -0.3536
     18 C         142.6061  139.8227  168.8859 C.ar    1  UNL1        0.1787
     19 C         142.0881  140.3900  170.1743 C.ar    1  UNL1        0.0698
     20 O         141.9109  138.5863  159.7598 O.3     1  UNL1       -0.4754
     21 C         141.1618  138.2758  161.0217 C.ar    1  UNL1        0.1385
     22 C         141.9123  137.9280  162.2731 C.ar    1  UNL1        0.0366
     23 C         141.1633  137.6176  163.5350 C.ar    1  UNL1       -0.0011
     24 C         139.6638  137.6549  163.5455 C.ar    1  UNL1       -0.0215
     25 C         138.9133  138.0026  162.2942 C.ar    1  UNL1       -0.0011
     26 C         139.6623  138.3131  161.0323 C.ar    1  UNL1        0.0366
     27 C         138.9147  137.3444  164.8075 C.3     1  UNL1        0.0361
     28 C         138.6275  138.4347  165.7968 C.3     1  UNL1        0.0900
     29 C         138.5927  139.8653  165.3471 C.ar    1  UNL1        0.2060
     30 N         139.3051  141.0125  166.0004 N.ar    1  UNL1       -0.2121
     31 C         138.9921  142.2561  165.2223 C.ar    1  UNL1        0.1185
     32 C         139.4149  143.6843  165.4000 C.ar    1  UNL1        0.0223
     33 C         138.9319  144.7339  164.4435 C.ar    1  UNL1        0.0017
     34 C         138.0261  144.3555  163.3093 C.ar    1  UNL1        0.0032
     35 C         137.6034  142.9273  163.1317 C.ar    1  UNL1        0.0391
     36 C         138.0864  141.8776  164.0881 C.ar    1  UNL1        0.1644
     37 O         137.8395  140.4001  164.1653 O.2     1  UNL1       -0.4384
@<TRIPOS>BOND
     1    10    11    1
     2    11    12   ar
     3    12    13   ar
     4    13    14   ar
     5    14    15   ar
     6    15     4    1
     7     4     5    1
     8     5     6    1
     9     6     7    1
    10     7     3    1
    11     3     2    1
    12     2     1    1
    13     1    20    1
    14    20    21    1
    15    21    22   ar
    16    22    23   ar
    17    23    24   ar
    18    24    27    1
    19    27    28    1
    20    28    29    1
    21    29    30   ar
    22    30    31   ar
    23    31    32   ar
    24    32    33   ar
    25    33    34   ar
    26    34    35   ar
    27    35    36   ar
    28    36    37   ar
    29    24    25   ar
    30    25    26   ar
    31     7     8    1
    32     8     9    1
    33    15    16   ar
    34    16    17   ar
    35    17    18   ar
    36    18    19   ar
    37    19    11   ar
    38    18    14   ar
    39     9     4    1
    40    26    21   ar
    41    37    29   ar
    42    36    31   ar
@<TRIPOS>MOLECULE
*****
 37 42 0 0 0
SMALL
GASTEIGER

@<TRIPOS>ATOM
      1 C         141.7754  138.0231  159.6068 C.3     1  UNL1        0.2068
      2 C         140.6730  139.0387  159.6632 C.3     1  UNL1        0.0646
      3 C         139.3461  138.6731  160.2595 C.3     1  UNL1        0.0759
      4 C         138.7133  138.9873  164.7037 C.3     1  UNL1        0.0464
      5 C         138.3739  140.1463  163.8140 C.3     1  UNL1        0.0234
      6 C         138.5848  140.0416  162.3326 C.3     1  UNL1        0.0725
      7 N         139.1351  138.7779  161.7409 N.3     1  UNL1       -0.2725
      8 C         139.4745  137.6189  162.6306 C.3     1  UNL1        0.0725
      9 C         139.2635  137.7236  164.1120 C.3     1  UNL1        0.0234
     10 F         141.2896  141.9014  170.6622 F       1  UNL1       -0.2041
     11 C         140.6430  141.2262  169.4891 C.ar    1  UNL1        0.1433
     12 C         141.2146  141.4024  168.1136 C.ar    1  UNL1        0.0299
     13 C         140.5679  140.7272  166.9405 C.ar    1  UNL1        0.0067
     14 C         139.3497  139.8759  167.1431 C.ar    1  UNL1        0.0540
     15 C         138.5023  139.0921  166.1851 C.ar    1  UNL1        0.1003
     16 N         137.4070  138.4315  166.9686 N.ar    1  UNL1       -0.0814
     17 O         137.5774  138.8070  168.4108 O.2     1  UNL1       -0.3536
     18 C         138.7781  139.6997  168.5186 C.ar    1  UNL1        0.1787
     19 C         139.4247  140.3749  169.6916 C.ar    1  UNL1        0.0698
     20 O         142.5080  137.6411  160.8587 O.3     1  UNL1       -0.4754
     21 C         143.1305  138.7023  161.7168 C.ar    1  UNL1        0.1385
     22 C         142.9834  138.6425  163.2084 C.ar    1  UNL1        0.0366
     23 C         143.6059  139.7037  164.0665 C.ar    1  UNL1       -0.0011
     24 C         144.3754  140.8246  163.4330 C.ar    1  UNL1       -0.0215
     25 C         144.5225  140.8844  161.9414 C.ar    1  UNL1       -0.0011
     26 C         143.9000  139.8232  161.0833 C.ar    1  UNL1        0.0366
     27 C         144.9979  141.8858  164.2911 C.3     1  UNL1        0.0361
     28 C         144.4547  143.2838  164.2674 C.3     1  UNL1        0.0900
     29 C         142.9776  143.5124  164.1412 C.ar    1  UNL1        0.2060
     30 N         141.9729  143.4194  165.2512 N.ar    1  UNL1       -0.2121
     31 C         140.6202  143.7237  164.6788 C.ar    1  UNL1        0.1185
     32 C         139.2567  143.7811  165.3013 C.ar    1  UNL1        0.0223
     33 C         138.0619  144.1196  164.4602 C.ar    1  UNL1        0.0017
     34 C         138.2304  144.4007  162.9964 C.ar    1  UNL1        0.0032
     35 C         139.5939  144.3433  162.3739 C.ar    1  UNL1        0.0391
     36 C         140.7888  144.0048  163.2151 C.ar    1  UNL1        0.1644
     37 O         142.2457  143.8742  162.8828 O.2     1  UNL1       -0.4384
@<TRIPOS>BOND
     1    10    11    1
     2    11    12   ar
     3    12    13   ar
     4    13    14   ar
     5    14    15   ar
     6    15     4    1
     7     4     5    1
     8     5     6    1
     9     6     7    1
    10     7     3    1
    11     3     2    1
    12     2     1    1
    13     1    20    1
    14    20    21    1
    15    21    22   ar
    16    22    23   ar
    17    23    24   ar
    18    24    27    1
    19    27    28    1
    20    28    29    1
    21    29    30   ar
    22    30    31   ar
    23    31    32   ar
    24    32    33   ar
    25    33    34   ar
    26    34    35   ar
    27    35    36   ar
    28    36    37   ar
    29    24    25   ar
    30    25    26   ar
    31     7     8    1
    32     8     9    1
    33    15    16   ar
    34    16    17   ar
    35    17    18   ar
    36    18    19   ar
    37    19    11   ar
    38    18    14   ar
    39     9     4    1
    40    26    21   ar
    41    37    29   ar
    42    36    31   ar
@<TRIPOS>MOLECULE
*****
 37 42 0 0 0
SMALL
GASTEIGER

@<TRIPOS>ATOM
      1 C         138.2792  138.4565  160.9556 C.3     1  UNL1        0.2068
      2 C         139.7739  138.5748  160.9119 C.3     1  UNL1        0.0646
      3 C         140.6060  137.9748  162.0062 C.3     1  UNL1        0.0759
      4 C         140.2504  139.5308  166.2137 C.3     1  UNL1        0.0464
      5 C         139.4486  138.3378  165.7849 C.3     1  UNL1        0.0234
      6 C         139.5672  137.8191  164.3825 C.3     1  UNL1        0.0725
      7 N         140.4875  138.4935  163.4087 N.3     1  UNL1       -0.2725
      8 C         141.2893  139.6865  163.8375 C.3     1  UNL1        0.0725
      9 C         141.1707  140.2051  165.2399 C.3     1  UNL1        0.0234
     10 F         143.4487  143.5862  171.1082 F       1  UNL1       -0.2041
     11 C         142.6695  142.7076  170.1750 C.ar    1  UNL1        0.1433
     12 C         143.1827  142.4421  168.7909 C.ar    1  UNL1        0.0299
     13 C         142.4035  141.5635  167.8577 C.ar    1  UNL1        0.0067
     14 C         141.1109  140.9505  168.3087 C.ar    1  UNL1        0.0540
     15 C         140.1319  140.0494  167.6162 C.ar    1  UNL1        0.1003
     16 N         139.0135  139.7580  168.5724 N.ar    1  UNL1       -0.0814
     17 O         139.3013  140.4790  169.8559 O.2     1  UNL1       -0.3536
     18 C         140.5976  141.2160  169.6928 C.ar    1  UNL1        0.1787
     19 C         141.3769  142.0946  170.6260 C.ar    1  UNL1        0.0698
     20 O         137.4271  139.6896  160.8946 O.3     1  UNL1       -0.4754
     21 C         137.7205  140.8494  161.7994 C.ar    1  UNL1        0.1385
     22 C         137.6672  140.6716  163.2879 C.ar    1  UNL1        0.0366
     23 C         137.9605  141.8314  164.1927 C.ar    1  UNL1       -0.0011
     24 C         138.3071  143.1690  163.6091 C.ar    1  UNL1       -0.0215
     25 C         138.3605  143.3468  162.1206 C.ar    1  UNL1       -0.0011
     26 C         138.0671  142.1870  161.2158 C.ar    1  UNL1        0.0366
     27 C         138.6005  144.3288  164.5139 C.3     1  UNL1        0.0361
     28 C         139.8930  145.0779  164.3781 C.3     1  UNL1        0.0900
     29 C         141.1577  144.3389  164.0552 C.ar    1  UNL1        0.2060
     30 N         142.0678  143.6742  165.0453 N.ar    1  UNL1       -0.2121
     31 C         143.2071  143.0594  164.2875 C.ar    1  UNL1        0.1185
     32 C         144.4053  142.2770  164.7370 C.ar    1  UNL1        0.0223
     33 C         145.3977  141.7795  163.7284 C.ar    1  UNL1        0.0017
     34 C         145.1918  142.0641  162.2700 C.ar    1  UNL1        0.0032
     35 C         143.9935  142.8465  161.8205 C.ar    1  UNL1        0.0391
     36 C         143.0012  143.3441  162.8293 C.ar    1  UNL1        0.1644
     37 O         141.7347  144.1348  162.6857 O.2     1  UNL1       -0.4384
@<TRIPOS>BOND
     1    10    11    1
     2    11    12   ar
     3    12    13   ar
     4    13    14   ar
     5    14    15   ar
     6    15     4    1
     7     4     5    1
     8     5     6    1
     9     6     7    1
    10     7     3    1
    11     3     2    1
    12     2     1    1
    13     1    20    1
    14    20    21    1
    15    21    22   ar
    16    22    23   ar
    17    23    24   ar
    18    24    27    1
    19    27    28    1
    20    28    29    1
    21    29    30   ar
    22    30    31   ar
    23    31    32   ar
    24    32    33   ar
    25    33    34   ar
    26    34    35   ar
    27    35    36   ar
    28    36    37   ar
    29    24    25   ar
    30    25    26   ar
    31     7     8    1
    32     8     9    1
    33    15    16   ar
    34    16    17   ar
    35    17    18   ar
    36    18    19   ar
    37    19    11   ar
    38    18    14   ar
    39     9     4    1
    40    26    21   ar
    41    37    29   ar
    42    36    31   ar
@<TRIPOS>MOLECULE
*****
 37 42 0 0 0
SMALL
GASTEIGER

@<TRIPOS>ATOM
      1 C         141.9998  138.4699  158.5437 C.3     1  UNL1        0.2068
      2 C         140.7535  139.2226  158.9044 C.3     1  UNL1        0.0646
      3 C         139.9082  138.7656  160.0562 C.3     1  UNL1        0.0759
      4 C         141.5540  138.8878  164.2427 C.3     1  UNL1        0.0464
      5 C         141.3020  137.5689  163.5741 C.3     1  UNL1        0.0234
      6 C         140.7534  137.5282  162.1786 C.3     1  UNL1        0.0725
      7 N         140.4568  138.8063  161.4517 N.3     1  UNL1       -0.2725
      8 C         140.7088  140.1252  162.1204 C.3     1  UNL1        0.0725
      9 C         141.2573  140.1659  163.5158 C.3     1  UNL1        0.0234
     10 F         139.9991  140.6585  170.9568 F       1  UNL1       -0.2041
     11 C         140.4584  140.2445  169.5902 C.ar    1  UNL1        0.1433
     12 C         139.5363  140.3830  168.4152 C.ar    1  UNL1        0.0299
     13 C         139.9956  139.9690  167.0486 C.ar    1  UNL1        0.0067
     14 C         141.3768  139.4164  166.8569 C.ar    1  UNL1        0.0540
     15 C         142.1025  138.9285  165.6382 C.ar    1  UNL1        0.1003
     16 N         143.4731  138.4883  166.0600 N.ar    1  UNL1       -0.0814
     17 O         143.5945  138.7043  167.5394 O.2     1  UNL1       -0.3536
     18 C         142.2988  139.2779  168.0319 C.ar    1  UNL1        0.1787
     19 C         141.8396  139.6919  169.3985 C.ar    1  UNL1        0.0698
     20 O         143.3407  139.1268  158.6869 O.3     1  UNL1       -0.4754
     21 C         143.8069  139.5941  160.0339 C.ar    1  UNL1        0.1385
     22 C         143.9947  141.0591  160.2958 C.ar    1  UNL1        0.0366
     23 C         144.4609  141.5264  161.6427 C.ar    1  UNL1       -0.0011
     24 C         144.7392  140.5288  162.7277 C.ar    1  UNL1       -0.0215
     25 C         144.5514  139.0638  162.4658 C.ar    1  UNL1       -0.0011
     26 C         144.0852  138.5965  161.1189 C.ar    1  UNL1        0.0366
     27 C         145.2054  140.9961  164.0747 C.3     1  UNL1        0.0361
     28 C         144.9401  142.4060  164.5126 C.3     1  UNL1        0.0900
     29 C         143.5324  142.9204  164.5725 C.ar    1  UNL1        0.2060
     30 N         142.5253  142.6112  165.6404 N.ar    1  UNL1       -0.2121
     31 C         141.2550  143.3341  165.3029 C.ar    1  UNL1        0.1185
     32 C         139.9249  143.4017  165.9930 C.ar    1  UNL1        0.0223
     33 C         138.8168  144.2251  165.4066 C.ar    1  UNL1        0.0017
     34 C         139.0386  144.9810  164.1301 C.ar    1  UNL1        0.0032
     35 C         140.3687  144.9134  163.4400 C.ar    1  UNL1        0.0391
     36 C         141.4769  144.0900  164.0264 C.ar    1  UNL1        0.1644
     37 O         142.8843  143.8343  163.5750 O.2     1  UNL1       -0.4384
@<TRIPOS>BOND
     1    10    11    1
     2    11    12   ar
     3    12    13   ar
     4    13    14   ar
     5    14    15   ar
     6    15     4    1
     7     4     5    1
     8     5     6    1
     9     6     7    1
    10     7     3    1
    11     3     2    1
    12     2     1    1
    13     1    20    1
    14    20    21    1
    15    21    22   ar
    16    22    23   ar
    17    23    24   ar
    18    24    27    1
    19    27    28    1
    20    28    29    1
    21    29    30   ar
    22    30    31   ar
    23    31    32   ar
    24    32    33   ar
    25    33    34   ar
    26    34    35   ar
    27    35    36   ar
    28    36    37   ar
    29    24    25   ar
    30    25    26   ar
    31     7     8    1
    32     8     9    1
    33    15    16   ar
    34    16    17   ar
    35    17    18   ar
    36    18    19   ar
    37    19    11   ar
    38    18    14   ar
    39     9     4    1
    40    26    21   ar
    41    37    29   ar
    42    36    31   ar
@<TRIPOS>MOLECULE
*****
 37 42 0 0 0
SMALL
GASTEIGER

@<TRIPOS>ATOM
      1 C         142.0802  138.1285  159.0733 C.3     1  UNL1        0.2068
      2 C         142.8652  138.9336  158.0806 C.3     1  UNL1        0.0646
      3 C         143.5953  140.1665  158.5246 C.3     1  UNL1        0.0759
      4 C         143.3959  141.4731  162.8261 C.3     1  UNL1        0.0464
      5 C         142.4709  142.0812  161.8139 C.3     1  UNL1        0.0234
      6 C         142.5374  141.6457  160.3801 C.3     1  UNL1        0.0725
      7 N         143.5288  140.6020  159.9584 N.3     1  UNL1       -0.2725
      8 C         144.4538  139.9940  160.9706 C.3     1  UNL1        0.0725
      9 C         144.3874  140.4295  162.4044 C.3     1  UNL1        0.0234
     10 F         142.3972  139.1473  169.4763 F       1  UNL1       -0.2041
     11 C         142.6236  139.7712  168.1311 C.ar    1  UNL1        0.1433
     12 C         142.6051  138.9194  166.8966 C.ar    1  UNL1        0.0299
     13 C         142.8315  139.5433  165.5514 C.ar    1  UNL1        0.0067
     14 C         143.0764  141.0190  165.4408 C.ar    1  UNL1        0.0540
     15 C         143.3295  141.9087  164.2599 C.ar    1  UNL1        0.1003
     16 N         143.5044  143.3104  164.7646 N.ar    1  UNL1       -0.0814
     17 O         143.3595  143.2870  166.2574 O.2     1  UNL1       -0.3536
     18 C         143.0949  141.8708  166.6753 C.ar    1  UNL1        0.1787
     19 C         142.8685  141.2469  168.0205 C.ar    1  UNL1        0.0698
     20 O         140.7333  138.6063  159.5289 O.3     1  UNL1       -0.4754
     21 C         140.2672  138.3158  160.9247 C.ar    1  UNL1        0.1385
     22 C         141.2675  138.1479  162.0298 C.ar    1  UNL1        0.0366
     23 C         140.8014  137.8574  163.4256 C.ar    1  UNL1       -0.0011
     24 C         139.3350  137.7348  163.7163 C.ar    1  UNL1       -0.0215
     25 C         138.3346  137.9027  162.6113 C.ar    1  UNL1       -0.0011
     26 C         138.8007  138.1932  161.2155 C.ar    1  UNL1        0.0366
     27 C         138.8689  137.4443  165.1122 C.3     1  UNL1        0.0361
     28 C         138.5353  138.5734  166.0417 C.3     1  UNL1        0.0900
     29 C         138.6209  139.9914  165.5603 C.ar    1  UNL1        0.2060
     30 N         139.5871  141.0308  166.0465 N.ar    1  UNL1       -0.2121
     31 C         139.3187  142.3009  165.2949 C.ar    1  UNL1        0.1185
     32 C         139.9588  143.6562  165.3533 C.ar    1  UNL1        0.0223
     33 C         139.4669  144.7570  164.4612 C.ar    1  UNL1        0.0017
     34 C         138.3348  144.5027  163.5105 C.ar    1  UNL1        0.0032
     35 C         137.6947  143.1474  163.4521 C.ar    1  UNL1        0.0391
     36 C         138.1866  142.0465  164.3443 C.ar    1  UNL1        0.1644
     37 O         137.7554  140.6193  164.5083 O.2     1  UNL1       -0.4384
@<TRIPOS>BOND
     1    10    11    1
     2    11    12   ar
     3    12    13   ar
     4    13    14   ar
     5    14    15   ar
     6    15     4    1
     7     4     5    1
     8     5     6    1
     9     6     7    1
    10     7     3    1
    11     3     2    1
    12     2     1    1
    13     1    20    1
    14    20    21    1
    15    21    22   ar
    16    22    23   ar
    17    23    24   ar
    18    24    27    1
    19    27    28    1
    20    28    29    1
    21    29    30   ar
    22    30    31   ar
    23    31    32   ar
    24    32    33   ar
    25    33    34   ar
    26    34    35   ar
    27    35    36   ar
    28    36    37   ar
    29    24    25   ar
    30    25    26   ar
    31     7     8    1
    32     8     9    1
    33    15    16   ar
    34    16    17   ar
    35    17    18   ar
    36    18    19   ar
    37    19    11   ar
    38    18    14   ar
    39     9     4    1
    40    26    21   ar
    41    37    29   ar
    42    36    31   ar
@<TRIPOS>MOLECULE
*****
 37 42 0 0 0
SMALL
GASTEIGER

@<TRIPOS>ATOM
      1 C         138.7640  139.7357  159.4086 C.3     1  UNL1        0.2068
      2 C         138.0814  139.0216  160.5374 C.3     1  UNL1        0.0646
      3 C         138.8851  138.1960  161.4978 C.3     1  UNL1        0.0759
      4 C         139.0213  139.3101  165.8556 C.3     1  UNL1        0.0464
      5 C         139.8195  138.1431  165.3545 C.3     1  UNL1        0.0234
      6 C         139.7741  137.7718  163.9019 C.3     1  UNL1        0.0725
      7 N         138.9305  138.5673  162.9504 N.3     1  UNL1       -0.2725
      8 C         138.1323  139.7343  163.4515 C.3     1  UNL1        0.0725
      9 C         138.1778  140.1056  164.9041 C.3     1  UNL1        0.0234
     10 F         142.4690  143.2877  170.6436 F       1  UNL1       -0.2041
     11 C         141.6573  142.4035  169.7439 C.ar    1  UNL1        0.1433
     12 C         141.9734  142.3312  168.2794 C.ar    1  UNL1        0.0299
     13 C         141.1617  141.4470  167.3797 C.ar    1  UNL1        0.0067
     14 C         140.0340  140.6351  167.9446 C.ar    1  UNL1        0.0540
     15 C         139.0668  139.6814  167.3082 C.ar    1  UNL1        0.1003
     16 N         138.1529  139.1643  168.3795 N.ar    1  UNL1       -0.0814
     17 O         138.5554  139.7984  169.6779 O.2     1  UNL1       -0.3536
     18 C         139.7180  140.7074  169.4091 C.ar    1  UNL1        0.1787
     19 C         140.5297  141.5916  170.3088 C.ar    1  UNL1        0.0698
     20 O         138.4827  141.1881  159.1606 O.3     1  UNL1       -0.4754
     21 C         138.9848  142.2241  160.1221 C.ar    1  UNL1        0.1385
     22 C         138.1909  142.5539  161.3514 C.ar    1  UNL1        0.0366
     23 C         138.6930  143.5899  162.3129 C.ar    1  UNL1       -0.0011
     24 C         139.9889  144.2962  162.0451 C.ar    1  UNL1       -0.0215
     25 C         140.7828  143.9665  160.8158 C.ar    1  UNL1       -0.0011
     26 C         140.2807  142.9304  159.8543 C.ar    1  UNL1        0.0366
     27 C         140.4910  145.3322  163.0065 C.3     1  UNL1        0.0361
     28 C         141.9033  145.2682  163.5081 C.3     1  UNL1        0.0900
     29 C         142.5657  143.9386  163.7161 C.ar    1  UNL1        0.2060
     30 N         144.0343  143.6570  163.5967 N.ar    1  UNL1       -0.2121
     31 C         144.2522  142.2015  163.8869 C.ar    1  UNL1        0.1185
     32 C         145.4928  141.3589  163.9178 C.ar    1  UNL1        0.0223
     33 C         145.3996  139.8986  164.2473 C.ar    1  UNL1        0.0017
     34 C         144.0658  139.2807  164.5460 C.ar    1  UNL1        0.0032
     35 C         142.8252  140.1233  164.5152 C.ar    1  UNL1        0.0391
     36 C         142.9184  141.5836  164.1856 C.ar    1  UNL1        0.1644
     37 O         141.8762  142.6572  164.0801 O.2     1  UNL1       -0.4384
@<TRIPOS>BOND
     1    10    11    1
     2    11    12   ar
     3    12    13   ar
     4    13    14   ar
     5    14    15   ar
     6    15     4    1
     7     4     5    1
     8     5     6    1
     9     6     7    1
    10     7     3    1
    11     3     2    1
    12     2     1    1
    13     1    20    1
    14    20    21    1
    15    21    22   ar
    16    22    23   ar
    17    23    24   ar
    18    24    27    1
    19    27    28    1
    20    28    29    1
    21    29    30   ar
    22    30    31   ar
    23    31    32   ar
    24    32    33   ar
    25    33    34   ar
    26    34    35   ar
    27    35    36   ar
    28    36    37   ar
    29    24    25   ar
    30    25    26   ar
    31     7     8    1
    32     8     9    1
    33    15    16   ar
    34    16    17   ar
    35    17    18   ar
    36    18    19   ar
    37    19    11   ar
    38    18    14   ar
    39     9     4    1
    40    26    21   ar
    41    37    29   ar
    42    36    31   ar
@<TRIPOS>MOLECULE
*****
 37 42 0 0 0
SMALL
GASTEIGER

@<TRIPOS>ATOM
      1 C         143.3246  139.4603  156.9734 C.3     1  UNL1        0.2068
      2 C         144.1811  140.6742  156.7665 C.3     1  UNL1        0.0646
      3 C         143.7401  142.0037  157.3032 C.3     1  UNL1        0.0759
      4 C         140.3934  142.2209  160.3037 C.3     1  UNL1        0.0464
      5 C         140.0980  142.3579  158.8394 C.3     1  UNL1        0.0234
      6 C         141.2136  142.2855  157.8393 C.3     1  UNL1        0.0725
      7 N         142.6245  142.0761  158.3033 N.3     1  UNL1       -0.2725
      8 C         142.9199  141.9391  159.7676 C.3     1  UNL1        0.0725
      9 C         141.8043  142.0115  160.7677 C.3     1  UNL1        0.0234
     10 F         138.2623  145.4396  166.2812 F       1  UNL1       -0.2041
     11 C         138.5860  144.6868  165.0248 C.ar    1  UNL1        0.1433
     12 C         139.8803  144.9407  164.3106 C.ar    1  UNL1        0.0299
     13 C         140.2039  144.1879  163.0542 C.ar    1  UNL1        0.0067
     14 C         139.2332  143.1810  162.5121 C.ar    1  UNL1        0.0540
     15 C         139.2778  142.2933  161.3038 C.ar    1  UNL1        0.1003
     16 N         138.0110  141.4906  161.2713 N.ar    1  UNL1       -0.0814
     17 O         137.1835  141.8823  162.4594 O.2     1  UNL1       -0.3536
     18 C         137.9389  142.9271  163.2263 C.ar    1  UNL1        0.1787
     19 C         137.6152  143.6800  164.4826 C.ar    1  UNL1        0.0698
     20 O         143.4807  138.6352  158.2163 O.3     1  UNL1       -0.4754
     21 C         142.3396  138.5102  159.1818 C.ar    1  UNL1        0.1385
     22 C         140.9267  138.6325  158.6929 C.ar    1  UNL1        0.0366
     23 C         139.7857  138.5076  159.6585 C.ar    1  UNL1       -0.0011
     24 C         140.0574  138.2603  161.1128 C.ar    1  UNL1       -0.0215
     25 C         141.4703  138.1380  161.6016 C.ar    1  UNL1       -0.0011
     26 C         142.6114  138.2630  160.6361 C.ar    1  UNL1        0.0366
     27 C         138.9163  138.1354  162.0783 C.3     1  UNL1        0.0361
     28 C         139.1716  137.6888  163.4874 C.3     1  UNL1        0.0900
     29 C         139.8041  138.6298  164.4694 C.ar    1  UNL1        0.2060
     30 N         141.0171  138.3473  165.3055 N.ar    1  UNL1       -0.2121
     31 C         141.2974  139.5615  166.1407 C.ar    1  UNL1        0.1185
     32 C         142.3650  139.8601  167.1511 C.ar    1  UNL1        0.0223
     33 C         142.3929  141.1913  167.8416 C.ar    1  UNL1        0.0017
     34 C         141.3531  142.2241  167.5218 C.ar    1  UNL1        0.0032
     35 C         140.2855  141.9255  166.5113 C.ar    1  UNL1        0.0391
     36 C         140.2576  140.5942  165.8208 C.ar    1  UNL1        0.1644
     37 O         139.3348  140.0184  164.7879 O.2     1  UNL1       -0.4384
@<TRIPOS>BOND
     1    10    11    1
     2    11    12   ar
     3    12    13   ar
     4    13    14   ar
     5    14    15   ar
     6    15     4    1
     7     4     5    1
     8     5     6    1
     9     6     7    1
    10     7     3    1
    11     3     2    1
    12     2     1    1
    13     1    20    1
    14    20    21    1
    15    21    22   ar
    16    22    23   ar
    17    23    24   ar
    18    24    27    1
    19    27    28    1
    20    28    29    1
    21    29    30   ar
    22    30    31   ar
    23    31    32   ar
    24    32    33   ar
    25    33    34   ar
    26    34    35   ar
    27    35    36   ar
    28    36    37   ar
    29    24    25   ar
    30    25    26   ar
    31     7     8    1
    32     8     9    1
    33    15    16   ar
    34    16    17   ar
    35    17    18   ar
    36    18    19   ar
    37    19    11   ar
    38    18    14   ar
    39     9     4    1
    40    26    21   ar
    41    37    29   ar
    42    36    31   ar
