@<TRIPOS>MOLECULE
*****
 28 32 0 0 0
SMALL
GASTEIGER

@<TRIPOS>ATOM
      1 C         142.1067  139.6212  154.8915 C.3     1  UNL1        0.1301
      2 N         142.3450  138.5620  155.9265 N.ar    1  UNL1       -0.3289
      3 C         142.5530  137.1005  155.6607 C.ar    1  UNL1        0.0358
      4 C         142.7536  136.4136  156.9790 C.ar    1  UNL1        0.0070
      5 C         142.6697  137.4506  158.0596 C.ar    1  UNL1        0.0144
      6 C         142.7906  137.3574  159.5517 C.ar    1  UNL1        0.0057
      7 C         142.6589  138.5920  160.3934 C.ar    1  UNL1        0.0537
      8 C         142.4063  139.9198  159.7429 C.ar    1  UNL1        0.0060
      9 C         142.2854  140.0130  158.2507 C.ar    1  UNL1        0.0173
     10 C         142.4171  138.7784  157.4091 C.ar    1  UNL1        0.0594
     11 C         142.9869  134.9326  157.0252 C.3     1  UNL1        0.1003
     12 N         143.0195  134.1385  155.7531 N.3     1  UNL1       -0.2697
     13 C         142.8188  134.8253  154.4348 C.3     1  UNL1        0.0786
     14 C         142.5856  136.3063  154.3886 C.3     1  UNL1        0.0608
     15 C         142.7798  138.4988  161.8857 C.2     1  UNL1        0.2490
     16 O         144.1146  138.6875  162.5432 O.2     1  UNL1       -0.2699
     17 N         141.5657  138.2168  162.7203 N.am    1  UNL1       -0.2761
     18 C         140.2308  138.0281  162.0627 C.3     1  UNL1        0.0937
     19 C         139.0167  137.7461  162.8973 C.3     1  UNL1        0.0216
     20 C         139.1376  137.6529  164.3896 C.3     1  UNL1        0.0035
     21 C         140.4725  137.8417  165.0471 C.3     1  UNL1        0.0216
     22 C         141.6866  138.1236  164.2125 C.3     1  UNL1        0.0937
     23 C         143.2528  132.6574  155.7993 C.3     1  UNL1        0.0628
     24 C         142.1085  131.7110  155.5871 C.3     1  UNL1        0.0481
     25 C         142.3417  130.2299  155.6333 C.3     1  UNL1        0.1435
     26 O         143.7192  129.6953  155.8918 O.3     1  UNL1       -0.3537
     27 C         144.8634  130.6417  156.1040 C.3     1  UNL1        0.1435
     28 C         144.6302  132.1228  156.0578 C.3     1  UNL1        0.0481
@<TRIPOS>BOND
     1     1     2    1
     2     2     3   ar
     3     3     4   ar
     4     4     5   ar
     5     5     6   ar
     6     6     7   ar
     7     7    15    1
     8    15    16    2
     9    15    17   am
    10    17    18    1
    11    18    19    1
    12    19    20    1
    13    20    21    1
    14    21    22    1
    15     7     8   ar
    16     8     9   ar
    17     9    10   ar
    18     4    11    1
    19    11    12    1
    20    12    23    1
    21    23    24    1
    22    24    25    1
    23    25    26    1
    24    26    27    1
    25    27    28    1
    26    12    13    1
    27    13    14    1
    28    10     2   ar
    29    28    23    1
    30    14     3    1
    31    10     5   ar
    32    22    17    1
@<TRIPOS>MOLECULE
*****
 28 32 0 0 0
SMALL
GASTEIGER

@<TRIPOS>ATOM
      1 C         139.5999  146.6306  161.7200 C.3     1  UNL1        0.1301
      2 N         140.1025  145.2251  161.8688 N.ar    1  UNL1       -0.3289
      3 C         140.8378  144.4367  160.8259 C.ar    1  UNL1        0.0358
      4 C         141.1478  143.0857  161.3993 C.ar    1  UNL1        0.0070
      5 C         140.6041  143.0392  162.7966 C.ar    1  UNL1        0.0144
      6 C         140.6138  141.9637  163.8421 C.ar    1  UNL1        0.0057
      7 C         139.9775  142.2105  165.1778 C.ar    1  UNL1        0.0537
      8 C         139.3315  143.5328  165.4679 C.ar    1  UNL1        0.0060
      9 C         139.3217  144.6083  164.4224 C.ar    1  UNL1        0.0173
     10 C         139.9581  144.3615  163.0867 C.ar    1  UNL1        0.0594
     11 C         141.8852  142.0724  160.5751 C.3     1  UNL1        0.1003
     12 N         142.3125  142.4100  159.1774 N.3     1  UNL1       -0.2697
     13 C         142.0025  143.7610  158.6040 C.3     1  UNL1        0.0786
     14 C         141.2652  144.7743  159.4283 C.3     1  UNL1        0.0608
     15 C         139.9872  141.1350  166.2234 C.2     1  UNL1        0.2490
     16 O         138.9586  140.0439  166.1866 O.2     1  UNL1       -0.2699
     17 N         141.0256  141.1506  167.3058 N.am    1  UNL1       -0.2761
     18 C         142.0543  142.2418  167.3425 C.3     1  UNL1        0.0937
     19 C         143.0927  142.2574  168.4249 C.3     1  UNL1        0.0216
     20 C         143.1024  141.1819  169.4705 C.3     1  UNL1        0.0035
     21 C         142.0737  140.0908  169.4337 C.3     1  UNL1        0.0216
     22 C         141.0353  140.0752  168.3513 C.3     1  UNL1        0.0937
     23 C         143.0499  141.3966  158.3531 C.3     1  UNL1        0.0628
     24 C         144.3504  141.7629  157.7015 C.3     1  UNL1        0.0481
     25 C         145.0877  140.7494  156.8772 C.3     1  UNL1        0.1435
     26 O         144.5246  139.3699  156.7046 O.3     1  UNL1       -0.3537
     27 C         143.2241  139.0037  157.3563 C.3     1  UNL1        0.1435
     28 C         142.4868  140.0170  158.1805 C.3     1  UNL1        0.0481
@<TRIPOS>BOND
     1     1     2    1
     2     2     3   ar
     3     3     4   ar
     4     4     5   ar
     5     5     6   ar
     6     6     7   ar
     7     7    15    1
     8    15    16    2
     9    15    17   am
    10    17    18    1
    11    18    19    1
    12    19    20    1
    13    20    21    1
    14    21    22    1
    15     7     8   ar
    16     8     9   ar
    17     9    10   ar
    18     4    11    1
    19    11    12    1
    20    12    23    1
    21    23    24    1
    22    24    25    1
    23    25    26    1
    24    26    27    1
    25    27    28    1
    26    12    13    1
    27    13    14    1
    28    10     2   ar
    29    28    23    1
    30    14     3    1
    31    10     5   ar
    32    22    17    1
@<TRIPOS>MOLECULE
*****
 28 32 0 0 0
SMALL
GASTEIGER

@<TRIPOS>ATOM
      1 C         138.4801  138.2128  162.9494 C.3     1  UNL1        0.1301
      2 N         139.0401  139.5667  163.2709 N.ar    1  UNL1       -0.3289
      3 C         139.5122  140.0284  164.6177 C.ar    1  UNL1        0.0358
      4 C         139.9901  141.4437  164.4812 C.ar    1  UNL1        0.0070
      5 C         139.8134  141.8566  163.0501 C.ar    1  UNL1        0.0144
      6 C         140.1112  143.1391  162.3314 C.ar    1  UNL1        0.0057
      7 C         139.8219  143.2615  160.8647 C.ar    1  UNL1        0.0537
      8 C         139.2348  142.1015  160.1167 C.ar    1  UNL1        0.0060
      9 C         138.9369  140.8190  160.8353 C.ar    1  UNL1        0.0173
     10 C         139.2262  140.6966  162.3020 C.ar    1  UNL1        0.0594
     11 C         140.5245  142.1735  165.6778 C.3     1  UNL1        0.1003
     12 N         140.5809  141.4880  167.0108 N.3     1  UNL1       -0.2697
     13 C         140.1030  140.0728  167.1473 C.3     1  UNL1        0.0786
     14 C         139.5686  139.3430  165.9508 C.3     1  UNL1        0.0608
     15 C         140.1198  144.5440  160.1459 C.2     1  UNL1        0.2490
     16 O         139.6380  145.8484  160.7085 O.2     1  UNL1       -0.2699
     17 N         140.8994  144.5221  158.8646 N.am    1  UNL1       -0.2761
     18 C         141.3811  143.2176  158.3021 C.3     1  UNL1        0.0937
     19 C         142.1607  143.1957  157.0208 C.3     1  UNL1        0.0216
     20 C         142.4586  144.4782  156.3020 C.3     1  UNL1        0.0035
     21 C         141.9769  145.7826  156.8646 C.3     1  UNL1        0.0216
     22 C         141.1973  145.8045  158.1459 C.3     1  UNL1        0.0937
     23 C         141.1153  142.2179  168.2074 C.3     1  UNL1        0.0628
     24 C         142.4778  141.8873  168.7407 C.3     1  UNL1        0.0481
     25 C         143.0122  142.6171  169.9373 C.3     1  UNL1        0.1435
     26 O         142.1842  143.6776  170.6005 O.3     1  UNL1       -0.3537
     27 C         140.8217  144.0082  170.0672 C.3     1  UNL1        0.1435
     28 C         140.2873  143.2784  168.8706 C.3     1  UNL1        0.0481
@<TRIPOS>BOND
     1     1     2    1
     2     2     3   ar
     3     3     4   ar
     4     4     5   ar
     5     5     6   ar
     6     6     7   ar
     7     7    15    1
     8    15    16    2
     9    15    17   am
    10    17    18    1
    11    18    19    1
    12    19    20    1
    13    20    21    1
    14    21    22    1
    15     7     8   ar
    16     8     9   ar
    17     9    10   ar
    18     4    11    1
    19    11    12    1
    20    12    23    1
    21    23    24    1
    22    24    25    1
    23    25    26    1
    24    26    27    1
    25    27    28    1
    26    12    13    1
    27    13    14    1
    28    10     2   ar
    29    28    23    1
    30    14     3    1
    31    10     5   ar
    32    22    17    1
@<TRIPOS>MOLECULE
*****
 28 32 0 0 0
SMALL
GASTEIGER

@<TRIPOS>ATOM
      1 C         141.0831  141.3434  155.5819 C.3     1  UNL1        0.1301
      2 N         140.9262  142.6279  156.3405 N.ar    1  UNL1       -0.3289
      3 C         140.5752  143.9622  155.7519 C.ar    1  UNL1        0.0358
      4 C         140.5249  144.9625  156.8685 C.ar    1  UNL1        0.0070
      5 C         140.8448  144.2465  158.1471 C.ar    1  UNL1        0.0144
      6 C         140.9423  144.7219  159.5664 C.ar    1  UNL1        0.0057
      7 C         141.2879  143.7545  160.6594 C.ar    1  UNL1        0.0537
      8 C         141.5360  142.3116  160.3330 C.ar    1  UNL1        0.0060
      9 C         141.4384  141.8361  158.9137 C.ar    1  UNL1        0.0173
     10 C         141.0929  142.8036  157.8208 C.ar    1  UNL1        0.0594
     11 C         140.1942  146.3962  156.5767 C.3     1  UNL1        0.1003
     12 N         139.9139  146.8296  155.1682 N.3     1  UNL1       -0.2697
     13 C         139.9642  145.8292  154.0516 C.3     1  UNL1        0.0786
     14 C         140.2948  144.3956  154.3435 C.3     1  UNL1        0.0608
     15 C         141.3854  144.2299  162.0787 C.2     1  UNL1        0.2490
     16 O         142.6954  144.7259  162.6152 O.2     1  UNL1       -0.2699
     17 N         140.1729  144.2093  162.9616 N.am    1  UNL1       -0.2761
     18 C         138.8629  143.7133  162.4250 C.3     1  UNL1        0.0937
     19 C         137.6504  143.6927  163.3078 C.3     1  UNL1        0.0216
     20 C         137.7479  144.1681  164.7272 C.3     1  UNL1        0.0035
     21 C         139.0579  144.6641  165.2637 C.3     1  UNL1        0.0216
     22 C         140.2704  144.6847  164.3808 C.3     1  UNL1        0.0937
     23 C         139.5832  148.2633  154.8764 C.3     1  UNL1        0.0628
     24 C         138.8072  149.0719  155.8735 C.3     1  UNL1        0.0481
     25 C         138.4765  150.5057  155.5817 C.3     1  UNL1        0.1435
     26 O         138.9218  151.1307  154.2929 O.3     1  UNL1       -0.3537
     27 C         139.6978  150.3221  153.2959 C.3     1  UNL1        0.1435
     28 C         140.0285  148.8884  153.5877 C.3     1  UNL1        0.0481
@<TRIPOS>BOND
     1     1     2    1
     2     2     3   ar
     3     3     4   ar
     4     4     5   ar
     5     5     6   ar
     6     6     7   ar
     7     7    15    1
     8    15    16    2
     9    15    17   am
    10    17    18    1
    11    18    19    1
    12    19    20    1
    13    20    21    1
    14    21    22    1
    15     7     8   ar
    16     8     9   ar
    17     9    10   ar
    18     4    11    1
    19    11    12    1
    20    12    23    1
    21    23    24    1
    22    24    25    1
    23    25    26    1
    24    26    27    1
    25    27    28    1
    26    12    13    1
    27    13    14    1
    28    10     2   ar
    29    28    23    1
    30    14     3    1
    31    10     5   ar
    32    22    17    1
@<TRIPOS>MOLECULE
*****
 28 32 0 0 0
SMALL
GASTEIGER

@<TRIPOS>ATOM
      1 C         139.5301  139.2669  155.7418 C.3     1  UNL1        0.1301
      2 N         140.5930  138.5891  156.5548 N.ar    1  UNL1       -0.3289
      3 C         141.1874  137.2397  156.2794 C.ar    1  UNL1        0.0358
      4 C         142.2098  136.9583  157.3403 C.ar    1  UNL1        0.0070
      5 C         142.2473  138.1338  158.2713 C.ar    1  UNL1        0.0144
      6 C         143.0622  138.4166  159.4984 C.ar    1  UNL1        0.0057
      7 C         142.8779  139.7073  160.2401 C.ar    1  UNL1        0.0537
      8 C         141.8786  140.7152  159.7547 C.ar    1  UNL1        0.0060
      9 C         141.0637  140.4323  158.5275 C.ar    1  UNL1        0.0173
     10 C         141.2480  139.1417  157.7859 C.ar    1  UNL1        0.0594
     11 C         142.9746  135.6681  157.3214 C.3     1  UNL1        0.1003
     12 N         142.7170  134.6592  156.2416 N.3     1  UNL1       -0.2697
     13 C         141.6946  134.9406  155.1808 C.3     1  UNL1        0.0786
     14 C         140.9298  136.2308  155.1996 C.3     1  UNL1        0.0608
     15 C         143.6928  139.9902  161.4673 C.2     1  UNL1        0.2490
     16 O         144.8933  140.8853  161.3805 O.2     1  UNL1       -0.2699
     17 N         143.3072  139.3779  162.7812 N.am    1  UNL1       -0.2761
     18 C         142.1067  138.4827  162.8680 C.3     1  UNL1        0.0937
     19 C         141.7211  137.8703  164.1819 C.3     1  UNL1        0.0216
     20 C         142.5361  138.1532  165.4091 C.3     1  UNL1        0.0035
     21 C         143.7365  139.0484  165.3223 C.3     1  UNL1        0.0216
     22 C         144.1221  139.6607  164.0084 C.3     1  UNL1        0.0937
     23 C         143.4818  133.3689  156.2228 C.3     1  UNL1        0.0628
     24 C         143.3305  132.4243  155.0675 C.3     1  UNL1        0.0481
     25 C         144.0954  131.1340  155.0487 C.3     1  UNL1        0.1435
     26 O         145.0114  130.7885  156.1851 O.3     1  UNL1       -0.3537
     27 C         145.1627  131.7332  157.3404 C.3     1  UNL1        0.1435
     28 C         144.3979  133.0234  157.3593 C.3     1  UNL1        0.0481
@<TRIPOS>BOND
     1     1     2    1
     2     2     3   ar
     3     3     4   ar
     4     4     5   ar
     5     5     6   ar
     6     6     7   ar
     7     7    15    1
     8    15    16    2
     9    15    17   am
    10    17    18    1
    11    18    19    1
    12    19    20    1
    13    20    21    1
    14    21    22    1
    15     7     8   ar
    16     8     9   ar
    17     9    10   ar
    18     4    11    1
    19    11    12    1
    20    12    23    1
    21    23    24    1
    22    24    25    1
    23    25    26    1
    24    26    27    1
    25    27    28    1
    26    12    13    1
    27    13    14    1
    28    10     2   ar
    29    28    23    1
    30    14     3    1
    31    10     5   ar
    32    22    17    1
@<TRIPOS>MOLECULE
*****
 28 32 0 0 0
SMALL
GASTEIGER

@<TRIPOS>ATOM
      1 C         143.7878  142.2903  157.4345 C.3     1  UNL1        0.1301
      2 N         143.4529  141.0294  158.1747 N.ar    1  UNL1       -0.3289
      3 C         143.2947  139.6666  157.5683 C.ar    1  UNL1        0.0358
      4 C         142.9615  138.7049  158.6701 C.ar    1  UNL1        0.0070
      5 C         142.9138  139.4733  159.9575 C.ar    1  UNL1        0.0144
      6 C         142.6330  139.0504  161.3690 C.ar    1  UNL1        0.0057
      7 C         142.6560  140.0641  162.4742 C.ar    1  UNL1        0.0537
      8 C         142.9597  141.5008  162.1680 C.ar    1  UNL1        0.0060
      9 C         143.2405  141.9237  160.7566 C.ar    1  UNL1        0.0173
     10 C         143.2175  140.9099  159.6513 C.ar    1  UNL1        0.0594
     11 C         142.7445  137.2537  158.3588 C.3     1  UNL1        0.1003
     12 N         142.8608  136.7642  156.9457 N.3     1  UNL1       -0.2697
     13 C         143.1940  137.7259  155.8438 C.3     1  UNL1        0.0786
     14 C         143.4110  139.1771  156.1551 C.3     1  UNL1        0.0608
     15 C         142.3752  139.6413  163.8858 C.2     1  UNL1        0.2490
     16 O         143.4949  139.1645  164.7627 O.2     1  UNL1       -0.2699
     17 N         140.9747  139.6952  164.4204 N.am    1  UNL1       -0.2761
     18 C         139.8551  140.1721  163.5434 C.3     1  UNL1        0.0937
     19 C         138.4546  140.2260  164.0780 C.3     1  UNL1        0.0216
     20 C         138.1738  139.8031  165.4895 C.3     1  UNL1        0.0035
     21 C         139.2935  139.3264  166.3664 C.3     1  UNL1        0.0216
     22 C         140.6939  139.2724  165.8319 C.3     1  UNL1        0.0937
     23 C         142.6439  135.3129  156.6344 C.3     1  UNL1        0.0628
     24 C         141.6725  134.9127  155.5637 C.3     1  UNL1        0.0481
     25 C         141.4556  133.4614  155.2524 C.3     1  UNL1        0.1435
     26 O         142.2099  132.4105  156.0118 O.3     1  UNL1       -0.3537
     27 C         143.1812  132.8109  157.0825 C.3     1  UNL1        0.1435
     28 C         143.3982  134.2620  157.3938 C.3     1  UNL1        0.0481
@<TRIPOS>BOND
     1     1     2    1
     2     2     3   ar
     3     3     4   ar
     4     4     5   ar
     5     5     6   ar
     6     6     7   ar
     7     7    15    1
     8    15    16    2
     9    15    17   am
    10    17    18    1
    11    18    19    1
    12    19    20    1
    13    20    21    1
    14    21    22    1
    15     7     8   ar
    16     8     9   ar
    17     9    10   ar
    18     4    11    1
    19    11    12    1
    20    12    23    1
    21    23    24    1
    22    24    25    1
    23    25    26    1
    24    26    27    1
    25    27    28    1
    26    12    13    1
    27    13    14    1
    28    10     2   ar
    29    28    23    1
    30    14     3    1
    31    10     5   ar
    32    22    17    1
@<TRIPOS>MOLECULE
*****
 28 32 0 0 0
SMALL
GASTEIGER

@<TRIPOS>ATOM
      1 C         144.5030  142.1910  156.4611 C.3     1  UNL1        0.1301
      2 N         143.8816  141.1072  157.2912 N.ar    1  UNL1       -0.3289
      3 C         143.6834  139.6803  156.8731 C.ar    1  UNL1        0.0358
      4 C         143.0286  138.9513  158.0088 C.ar    1  UNL1        0.0070
      5 C         142.8222  139.9275  159.1287 C.ar    1  UNL1        0.0144
      6 C         142.2223  139.7752  160.4951 C.ar    1  UNL1        0.0057
      7 C         142.1495  140.9555  161.4179 C.ar    1  UNL1        0.0537
      8 C         142.6767  142.2879  160.9745 C.ar    1  UNL1        0.0060
      9 C         143.2766  142.4402  159.6082 C.ar    1  UNL1        0.0173
     10 C         143.3493  141.2599  158.6853 C.ar    1  UNL1        0.0594
     11 C         142.7050  137.4926  157.8763 C.3     1  UNL1        0.1003
     12 N         143.0362  136.7630  156.6082 N.3     1  UNL1       -0.2697
     13 C         143.6909  137.4921  155.4725 C.3     1  UNL1        0.0786
     14 C         144.0146  138.9508  155.6050 C.3     1  UNL1        0.0608
     15 C         141.5496  140.8033  162.7843 C.2     1  UNL1        0.2490
     16 O         142.3416  140.1600  163.8838 O.2     1  UNL1       -0.2699
     17 N         140.1576  141.2944  163.0512 N.am    1  UNL1       -0.2761
     18 C         139.3656  141.9377  161.9517 C.3     1  UNL1        0.0937
     19 C         137.9736  142.4289  162.2185 C.3     1  UNL1        0.0216
     20 C         137.3737  142.2767  163.5849 C.3     1  UNL1        0.0035
     21 C         138.1657  141.6334  164.6844 C.3     1  UNL1        0.0216
     22 C         139.5576  141.1423  164.4175 C.3     1  UNL1        0.0937
     23 C         142.7125  135.3043  156.4757 C.3     1  UNL1        0.0628
     24 C         141.6755  134.8527  155.4905 C.3     1  UNL1        0.0481
     25 C         141.3518  133.3939  155.3581 C.3     1  UNL1        0.1435
     26 O         142.0652  132.3870  156.2108 O.3     1  UNL1       -0.3537
     27 C         143.1022  132.8387  157.1960 C.3     1  UNL1        0.1435
     28 C         143.4259  134.2973  157.3285 C.3     1  UNL1        0.0481
@<TRIPOS>BOND
     1     1     2    1
     2     2     3   ar
     3     3     4   ar
     4     4     5   ar
     5     5     6   ar
     6     6     7   ar
     7     7    15    1
     8    15    16    2
     9    15    17   am
    10    17    18    1
    11    18    19    1
    12    19    20    1
    13    20    21    1
    14    21    22    1
    15     7     8   ar
    16     8     9   ar
    17     9    10   ar
    18     4    11    1
    19    11    12    1
    20    12    23    1
    21    23    24    1
    22    24    25    1
    23    25    26    1
    24    26    27    1
    25    27    28    1
    26    12    13    1
    27    13    14    1
    28    10     2   ar
    29    28    23    1
    30    14     3    1
    31    10     5   ar
    32    22    17    1
@<TRIPOS>MOLECULE
*****
 28 32 0 0 0
SMALL
GASTEIGER

@<TRIPOS>ATOM
      1 C         144.0746  137.6596  161.3612 C.3     1  UNL1        0.1301
      2 N         143.5275  138.9865  161.7975 N.ar    1  UNL1       -0.3289
      3 C         142.9948  140.0601  160.8955 C.ar    1  UNL1        0.0358
      4 C         142.5552  141.2097  161.7529 C.ar    1  UNL1        0.0070
      5 C         142.8162  140.8466  163.1847 C.ar    1  UNL1        0.0144
      6 C         142.5843  141.5896  164.4669 C.ar    1  UNL1        0.0057
      7 C         142.9533  140.9585  165.7766 C.ar    1  UNL1        0.0537
      8 C         143.5542  139.5845  165.8042 C.ar    1  UNL1        0.0060
      9 C         143.7862  138.8415  164.5220 C.ar    1  UNL1        0.0173
     10 C         143.4171  139.4725  163.2122 C.ar    1  UNL1        0.0594
     11 C         141.9740  142.4387  161.1190 C.3     1  UNL1        0.1003
     12 N         141.8325  142.5181  159.6278 N.3     1  UNL1       -0.2697
     13 C         142.2721  141.3684  158.7704 C.3     1  UNL1        0.0786
     14 C         142.8533  140.1395  159.4043 C.3     1  UNL1        0.0608
     15 C         142.7214  141.7016  167.0589 C.2     1  UNL1        0.2490
     16 O         143.6713  142.7828  167.4816 O.2     1  UNL1       -0.2699
     17 N         141.5395  141.3633  167.9185 N.am    1  UNL1       -0.2761
     18 C         140.5896  140.2821  167.4958 C.3     1  UNL1        0.0937
     19 C         139.4078  139.9438  168.3553 C.3     1  UNL1        0.0216
     20 C         139.1759  140.6869  169.6376 C.3     1  UNL1        0.0035
     21 C         140.1258  141.7680  170.0603 C.3     1  UNL1        0.0216
     22 C         141.3076  142.1063  169.2007 C.3     1  UNL1        0.0937
     23 C         141.2513  143.7471  158.9939 C.3     1  UNL1        0.0628
     24 C         140.7429  144.8657  159.8544 C.3     1  UNL1        0.0481
     25 C         140.1616  146.0948  159.2205 C.3     1  UNL1        0.1435
     26 O         140.0889  146.2052  157.7264 O.3     1  UNL1       -0.3537
     27 C         140.5973  145.0866  156.8660 C.3     1  UNL1        0.1435
     28 C         141.1785  143.8575  157.4998 C.3     1  UNL1        0.0481
@<TRIPOS>BOND
     1     1     2    1
     2     2     3   ar
     3     3     4   ar
     4     4     5   ar
     5     5     6   ar
     6     6     7   ar
     7     7    15    1
     8    15    16    2
     9    15    17   am
    10    17    18    1
    11    18    19    1
    12    19    20    1
    13    20    21    1
    14    21    22    1
    15     7     8   ar
    16     8     9   ar
    17     9    10   ar
    18     4    11    1
    19    11    12    1
    20    12    23    1
    21    23    24    1
    22    24    25    1
    23    25    26    1
    24    26    27    1
    25    27    28    1
    26    12    13    1
    27    13    14    1
    28    10     2   ar
    29    28    23    1
    30    14     3    1
    31    10     5   ar
    32    22    17    1
@<TRIPOS>MOLECULE
*****
 28 32 0 0 0
SMALL
GASTEIGER

@<TRIPOS>ATOM
      1 C         144.8760  142.4036  155.7091 C.3     1  UNL1        0.1301
      2 N         144.1732  141.4537  156.6331 N.ar    1  UNL1       -0.3289
      3 C         143.9912  139.9813  156.4122 C.ar    1  UNL1        0.0358
      4 C         143.2345  139.4271  157.5828 C.ar    1  UNL1        0.0070
      5 C         142.9489  140.5570  158.5271 C.ar    1  UNL1        0.0144
      6 C         142.2355  140.6071  159.8456 C.ar    1  UNL1        0.0057
      7 C         142.1022  141.9098  160.5772 C.ar    1  UNL1        0.0537
      8 C         142.6823  143.1623  159.9902 C.ar    1  UNL1        0.0060
      9 C         143.3957  143.1122  158.6717 C.ar    1  UNL1        0.0173
     10 C         143.5290  141.8095  157.9402 C.ar    1  UNL1        0.0594
     11 C         142.9034  137.9651  157.6376 C.3     1  UNL1        0.1003
     12 N         143.3289  137.0574  156.5218 N.3     1  UNL1       -0.2697
     13 C         144.0856  137.6116  155.3512 C.3     1  UNL1        0.0786
     14 C         144.4168  139.0735  155.2964 C.3     1  UNL1        0.0608
     15 C         141.3887  141.9600  161.8957 C.2     1  UNL1        0.2490
     16 O         139.8968  141.8133  161.9473 O.2     1  UNL1       -0.2699
     17 N         142.1673  142.1568  163.1627 N.am    1  UNL1       -0.2761
     18 C         143.6592  142.3034  163.1111 C.3     1  UNL1        0.0937
     19 C         144.4378  142.5002  164.3780 C.3     1  UNL1        0.0216
     20 C         143.7243  142.5504  165.6966 C.3     1  UNL1        0.0035
     21 C         142.2324  142.4038  165.7481 C.3     1  UNL1        0.0216
     22 C         141.4539  142.2070  164.4812 C.3     1  UNL1        0.0937
     23 C         142.9977  135.5954  156.5766 C.3     1  UNL1        0.0628
     24 C         143.7062  134.7020  157.5513 C.3     1  UNL1        0.0481
     25 C         143.3751  133.2400  157.6061 C.3     1  UNL1        0.1435
     26 O         142.3355  132.6715  156.6863 O.3     1  UNL1       -0.3537
     27 C         141.6270  133.5649  155.7117 C.3     1  UNL1        0.1435
     28 C         141.9581  135.0269  155.6569 C.3     1  UNL1        0.0481
@<TRIPOS>BOND
     1     1     2    1
     2     2     3   ar
     3     3     4   ar
     4     4     5   ar
     5     5     6   ar
     6     6     7   ar
     7     7    15    1
     8    15    16    2
     9    15    17   am
    10    17    18    1
    11    18    19    1
    12    19    20    1
    13    20    21    1
    14    21    22    1
    15     7     8   ar
    16     8     9   ar
    17     9    10   ar
    18     4    11    1
    19    11    12    1
    20    12    23    1
    21    23    24    1
    22    24    25    1
    23    25    26    1
    24    26    27    1
    25    27    28    1
    26    12    13    1
    27    13    14    1
    28    10     2   ar
    29    28    23    1
    30    14     3    1
    31    10     5   ar
    32    22    17    1
