@<TRIPOS>MOLECULE
*****
 29 33 0 0 0
SMALL
GASTEIGER

@<TRIPOS>ATOM
      1 C         142.2769  142.9623  164.3002 C.ar    1  UNL1        0.0198
      2 C         141.2660  143.7256  163.4968 C.ar    1  UNL1        0.1006
      3 N         141.4702  143.9188  162.0234 N.ar    1  UNL1       -0.2246
      4 C         142.6851  143.3488  161.3534 C.ar    1  UNL1        0.1702
      5 N         143.1519  143.3778  159.9281 N.ar    1  UNL1       -0.2052
      6 C         144.4513  142.6324  159.8507 C.ar    1  UNL1        0.1647
      7 S         144.7875  142.1427  161.2281 S.2     1  UNL1       -0.0499
      8 C         143.6960  142.5855  162.1568 C.ar    1  UNL1        0.0679
      9 C         143.4919  142.3922  163.6302 C.ar    1  UNL1        0.0112
     10 C         141.6646  142.3825  168.7206 C.ar    1  UNL1        0.0684
     11 C         143.0343  142.2344  168.1273 C.ar    1  UNL1        0.0103
     12 C         143.2384  142.4277  166.6539 C.ar    1  UNL1        0.0007
     13 C         142.0728  142.7690  165.7737 C.ar    1  UNL1        0.0016
     14 C         140.7031  142.9171  166.3669 C.ar    1  UNL1        0.0007
     15 C         140.4990  142.7238  167.8403 C.ar    1  UNL1        0.0103
     16 N         141.2564  141.9959  171.6673 N.1     1  UNL1       -0.1908
     17 C         141.4605  142.1892  170.1939 C.1     1  UNL1        0.1004
     18 N         145.2707  142.4148  158.6132 N.pl3   1  UNL1       -0.2880
     19 C         146.5928  143.1060  158.4580 C.3     1  UNL1        0.0940
     20 C         147.4122  142.8885  157.2206 C.3     1  UNL1        0.0375
     21 C         146.9093  141.9798  156.1383 C.3     1  UNL1        0.0609
     22 C         145.5872  141.2886  156.2935 C.3     1  UNL1        0.0375
     23 C         144.7678  141.5061  157.5309 C.3     1  UNL1        0.0940
     24 N         147.7287  141.7622  154.9008 N.3     1  UNL1       -0.2738
     25 C         149.2264  141.7603  154.9837 C.3     1  UNL1        0.0720
     26 C         150.0458  141.5427  153.7462 C.3     1  UNL1        0.0174
     27 C         149.3674  141.3271  152.4259 C.3     1  UNL1        0.0029
     28 C         147.8697  141.3291  152.3430 C.3     1  UNL1        0.0174
     29 C         147.0503  141.5466  153.5805 C.3     1  UNL1        0.0720
@<TRIPOS>BOND
     1    16    17    3
     2    17    10    1
     3    10    11   ar
     4    11    12   ar
     5    12    13   ar
     6    13     1    1
     7     1     2   ar
     8     2     3   ar
     9     3     4   ar
    10     4     5   ar
    11     5     6   ar
    12     6    18    1
    13    18    19    1
    14    19    20    1
    15    20    21    1
    16    21    24    1
    17    24    25    1
    18    25    26    1
    19    26    27    1
    20    27    28    1
    21    28    29    1
    22    21    22    1
    23    22    23    1
    24     6     7   ar
    25     7     8   ar
    26     8     9   ar
    27    13    14   ar
    28    14    15   ar
    29    15    10   ar
    30     9     1   ar
    31     8     4   ar
    32    23    18    1
    33    29    24    1
@<TRIPOS>MOLECULE
*****
 29 33 0 0 0
SMALL
GASTEIGER

@<TRIPOS>ATOM
      1 C         139.3174  142.0004  164.5611 C.ar    1  UNL1        0.0198
      2 C         138.1260  141.3276  163.9463 C.ar    1  UNL1        0.1006
      3 N         137.8184  141.5290  162.4921 N.ar    1  UNL1       -0.2246
      4 C         138.7023  142.4032  161.6526 C.ar    1  UNL1        0.1702
      5 N         138.6505  142.7859  160.2031 N.ar    1  UNL1       -0.2052
      6 C         139.8099  143.6952  159.9221 C.ar    1  UNL1        0.1647
      7 S         140.5782  143.8744  161.1979 S.2     1  UNL1       -0.0499
      8 C         139.8936  143.0760  162.2674 C.ar    1  UNL1        0.0679
      9 C         140.2012  142.8745  163.7216 C.ar    1  UNL1        0.0112
     10 C         140.2402  141.3962  168.9239 C.ar    1  UNL1        0.0684
     11 C         139.6369  140.2803  168.1233 C.ar    1  UNL1        0.0103
     12 C         139.3293  140.4817  166.6690 C.ar    1  UNL1        0.0007
     13 C         139.6250  141.7990  166.0153 C.ar    1  UNL1        0.0016
     14 C         140.2282  142.9149  166.8159 C.ar    1  UNL1        0.0007
     15 C         140.5358  142.7135  168.2701 C.ar    1  UNL1        0.0103
     16 N         140.8554  140.9935  171.8323 N.1     1  UNL1       -0.1908
     17 C         140.5478  141.1949  170.3781 C.1     1  UNL1        0.1004
     18 N         140.1426  144.3162  158.5978 N.pl3   1  UNL1       -0.2880
     19 C         139.3501  143.9508  157.3778 C.3     1  UNL1        0.0940
     20 C         139.6828  144.5718  156.0536 C.3     1  UNL1        0.0375
     21 C         140.8080  145.5581  155.9493 C.3     1  UNL1        0.0609
     22 C         141.6005  145.9235  157.1693 C.3     1  UNL1        0.0375
     23 C         141.2678  145.3026  158.4936 C.3     1  UNL1        0.0940
     24 N         141.1407  146.1792  154.6250 N.3     1  UNL1       -0.2738
     25 C         140.4073  147.4044  154.1658 C.3     1  UNL1        0.0720
     26 C         140.7400  148.0255  152.8416 C.3     1  UNL1        0.0174
     27 C         141.8061  147.4212  151.9766 C.3     1  UNL1        0.0029
     28 C         142.5395  146.1960  152.4358 C.3     1  UNL1        0.0174
     29 C         142.2068  145.5750  153.7600 C.3     1  UNL1        0.0720
@<TRIPOS>BOND
     1    16    17    3
     2    17    10    1
     3    10    11   ar
     4    11    12   ar
     5    12    13   ar
     6    13     1    1
     7     1     2   ar
     8     2     3   ar
     9     3     4   ar
    10     4     5   ar
    11     5     6   ar
    12     6    18    1
    13    18    19    1
    14    19    20    1
    15    20    21    1
    16    21    24    1
    17    24    25    1
    18    25    26    1
    19    26    27    1
    20    27    28    1
    21    28    29    1
    22    21    22    1
    23    22    23    1
    24     6     7   ar
    25     7     8   ar
    26     8     9   ar
    27    13    14   ar
    28    14    15   ar
    29    15    10   ar
    30     9     1   ar
    31     8     4   ar
    32    23    18    1
    33    29    24    1
@<TRIPOS>MOLECULE
*****
 29 33 0 0 0
SMALL
GASTEIGER

@<TRIPOS>ATOM
      1 C         140.5662  141.4248  164.4111 C.ar    1  UNL1        0.0198
      2 C         140.3970  142.6327  163.5381 C.ar    1  UNL1        0.1006
      3 N         140.4403  142.4913  162.0455 N.ar    1  UNL1       -0.2246
      4 C         140.6527  141.1419  161.4258 C.ar    1  UNL1        0.1702
      5 N         140.7408  140.6966  159.9960 N.ar    1  UNL1       -0.2052
      6 C         140.9645  139.2134  159.9855 C.ar    1  UNL1        0.1647
      7 S         141.0146  138.7421  161.4086 S.2     1  UNL1       -0.0499
      8 C         140.8219  139.9339  162.2988 C.ar    1  UNL1        0.0679
      9 C         140.7787  140.0754  163.7914 C.ar    1  UNL1        0.0112
     10 C         140.4365  141.8490  168.8892 C.ar    1  UNL1        0.0684
     11 C         140.5663  140.4898  168.2681 C.ar    1  UNL1        0.0103
     12 C         140.6095  140.3484  166.7754 C.ar    1  UNL1        0.0007
     13 C         140.5230  141.5662  165.9038 C.ar    1  UNL1        0.0016
     14 C         140.3932  142.9253  166.5250 C.ar    1  UNL1        0.0007
     15 C         140.3500  143.0668  168.0176 C.ar    1  UNL1        0.0103
     16 N         140.3500  142.1319  171.8746 N.1     1  UNL1       -0.1908
     17 C         140.3932  141.9904  170.3819 C.1     1  UNL1        0.1004
     18 N         141.1121  138.3527  158.7659 N.pl3   1  UNL1       -0.2880
     19 C         139.9348  138.1181  157.8665 C.3     1  UNL1        0.0940
     20 C         140.0824  137.2574  156.6469 C.3     1  UNL1        0.0375
     21 C         141.4072  136.6312  156.3268 C.3     1  UNL1        0.0609
     22 C         142.5846  136.8657  157.2262 C.3     1  UNL1        0.0375
     23 C         142.4370  137.7265  158.4458 C.3     1  UNL1        0.0940
     24 N         141.5549  135.7704  155.1072 N.3     1  UNL1       -0.2738
     25 C         141.9287  134.3248  155.2503 C.3     1  UNL1        0.0720
     26 C         142.0763  133.4641  154.0308 C.3     1  UNL1        0.0174
     27 C         141.8501  134.0489  152.6682 C.3     1  UNL1        0.0029
     28 C         141.4763  135.4945  152.5251 C.3     1  UNL1        0.0174
     29 C         141.3287  136.3553  153.7446 C.3     1  UNL1        0.0720
@<TRIPOS>BOND
     1    16    17    3
     2    17    10    1
     3    10    11   ar
     4    11    12   ar
     5    12    13   ar
     6    13     1    1
     7     1     2   ar
     8     2     3   ar
     9     3     4   ar
    10     4     5   ar
    11     5     6   ar
    12     6    18    1
    13    18    19    1
    14    19    20    1
    15    20    21    1
    16    21    24    1
    17    24    25    1
    18    25    26    1
    19    26    27    1
    20    27    28    1
    21    28    29    1
    22    21    22    1
    23    22    23    1
    24     6     7   ar
    25     7     8   ar
    26     8     9   ar
    27    13    14   ar
    28    14    15   ar
    29    15    10   ar
    30     9     1   ar
    31     8     4   ar
    32    23    18    1
    33    29    24    1
@<TRIPOS>MOLECULE
*****
 29 33 0 0 0
SMALL
GASTEIGER

@<TRIPOS>ATOM
      1 C         143.4240  140.1237  164.3485 C.ar    1  UNL1        0.0198
      2 C         144.5740  140.8435  163.7087 C.ar    1  UNL1        0.1006
      3 N         144.8959  140.6070  162.2629 N.ar    1  UNL1       -0.2246
      4 C         144.0677  139.6508  161.4568 C.ar    1  UNL1        0.1702
      5 N         144.1451  139.2184  160.0225 N.ar    1  UNL1       -0.2052
      6 C         143.0428  138.2314  159.7759 C.ar    1  UNL1        0.1647
      7 S         142.2842  138.0538  161.0577 S.2     1  UNL1       -0.0499
      8 C         142.9176  138.9311  162.0966 C.ar    1  UNL1        0.0679
      9 C         142.5958  139.1676  163.5424 C.ar    1  UNL1        0.0112
     10 C         142.4583  140.8331  168.6861 C.ar    1  UNL1        0.0684
     11 C         142.5130  139.4336  168.1490 C.ar    1  UNL1        0.0103
     12 C         142.8349  139.1972  166.7031 C.ar    1  UNL1        0.0007
     13 C         143.1021  140.3602  165.7944 C.ar    1  UNL1        0.0016
     14 C         143.0475  141.7597  166.3314 C.ar    1  UNL1        0.0007
     15 C         142.7256  141.9962  167.7772 C.ar    1  UNL1        0.0103
     16 N         141.8146  141.3060  171.5777 N.1     1  UNL1       -0.1908
     17 C         142.1365  141.0696  170.1319 C.1     1  UNL1        0.1004
     18 N         142.7504  137.5428  158.4757 N.pl3   1  UNL1       -0.2880
     19 C         143.1678  136.1165  158.2720 C.3     1  UNL1        0.0940
     20 C         142.8755  135.4279  156.9719 C.3     1  UNL1        0.0375
     21 C         142.1657  136.1656  155.8755 C.3     1  UNL1        0.0609
     22 C         141.7483  137.5918  156.0792 C.3     1  UNL1        0.0375
     23 C         142.0407  138.2804  157.3793 C.3     1  UNL1        0.0940
     24 N         141.8734  135.4769  154.5753 N.3     1  UNL1       -0.2738
     25 C         141.6536  133.9934  154.5452 C.3     1  UNL1        0.0720
     26 C         141.3613  133.3048  153.2451 C.3     1  UNL1        0.0174
     27 C         141.2886  134.0997  151.9751 C.3     1  UNL1        0.0029
     28 C         141.5083  135.5832  152.0053 C.3     1  UNL1        0.0174
     29 C         141.8007  136.2718  153.3054 C.3     1  UNL1        0.0720
@<TRIPOS>BOND
     1    16    17    3
     2    17    10    1
     3    10    11   ar
     4    11    12   ar
     5    12    13   ar
     6    13     1    1
     7     1     2   ar
     8     2     3   ar
     9     3     4   ar
    10     4     5   ar
    11     5     6   ar
    12     6    18    1
    13    18    19    1
    14    19    20    1
    15    20    21    1
    16    21    24    1
    17    24    25    1
    18    25    26    1
    19    26    27    1
    20    27    28    1
    21    28    29    1
    22    21    22    1
    23    22    23    1
    24     6     7   ar
    25     7     8   ar
    26     8     9   ar
    27    13    14   ar
    28    14    15   ar
    29    15    10   ar
    30     9     1   ar
    31     8     4   ar
    32    23    18    1
    33    29    24    1
@<TRIPOS>MOLECULE
*****
 29 33 0 0 0
SMALL
GASTEIGER

@<TRIPOS>ATOM
      1 C         141.0395  141.4020  163.0038 C.ar    1  UNL1        0.0198
      2 C         141.0328  142.9018  162.9822 C.ar    1  UNL1        0.1006
      3 N         141.8907  143.6415  161.9989 N.ar    1  UNL1       -0.2246
      4 C         142.7553  142.8813  161.0372 C.ar    1  UNL1        0.1702
      5 N         143.6990  143.3337  159.9626 N.ar    1  UNL1       -0.2052
      6 C         144.2889  142.1134  159.3201 C.ar    1  UNL1        0.1647
      7 S         143.7098  140.9069  159.9976 S.2     1  UNL1       -0.0499
      8 C         142.7619  141.3815  161.0589 C.ar    1  UNL1        0.0679
      9 C         141.9040  140.6419  162.0421 C.ar    1  UNL1        0.0112
     10 C         138.4658  139.1828  165.9537 C.ar    1  UNL1        0.0684
     11 C         138.7202  138.6017  164.5944 C.ar    1  UNL1        0.0103
     12 C         139.5781  139.3415  163.6111 C.ar    1  UNL1        0.0007
     13 C         140.1816  140.6622  163.9871 C.ar    1  UNL1        0.0016
     14 C         139.9272  141.2433  165.3464 C.ar    1  UNL1        0.0007
     15 C         139.0693  140.5036  166.3297 C.ar    1  UNL1        0.0103
     16 N         136.7501  137.7034  167.9202 N.1     1  UNL1       -0.1908
     17 C         137.6079  138.4431  166.9370 C.1     1  UNL1        0.1004
     18 N         145.2834  142.1015  158.1971 N.pl3   1  UNL1       -0.2880
     19 C         145.0478  141.2348  156.9958 C.3     1  UNL1        0.0940
     20 C         146.0422  141.2230  155.8728 C.3     1  UNL1        0.0375
     21 C         147.2722  142.0778  155.9513 C.3     1  UNL1        0.0609
     22 C         147.5078  142.9446  157.1526 C.3     1  UNL1        0.0375
     23 C         146.5134  142.9564  158.2756 C.3     1  UNL1        0.0940
     24 N         148.2667  142.0660  154.8283 N.3     1  UNL1       -0.2738
     25 C         147.8741  142.5760  153.4734 C.3     1  UNL1        0.0720
     26 C         148.8684  142.5642  152.3505 C.3     1  UNL1        0.0174
     27 C         150.2555  142.0424  152.5825 C.3     1  UNL1        0.0029
     28 C         150.6481  141.5325  153.9374 C.3     1  UNL1        0.0174
     29 C         149.6537  141.5443  155.0603 C.3     1  UNL1        0.0720
@<TRIPOS>BOND
     1    16    17    3
     2    17    10    1
     3    10    11   ar
     4    11    12   ar
     5    12    13   ar
     6    13     1    1
     7     1     2   ar
     8     2     3   ar
     9     3     4   ar
    10     4     5   ar
    11     5     6   ar
    12     6    18    1
    13    18    19    1
    14    19    20    1
    15    20    21    1
    16    21    24    1
    17    24    25    1
    18    25    26    1
    19    26    27    1
    20    27    28    1
    21    28    29    1
    22    21    22    1
    23    22    23    1
    24     6     7   ar
    25     7     8   ar
    26     8     9   ar
    27    13    14   ar
    28    14    15   ar
    29    15    10   ar
    30     9     1   ar
    31     8     4   ar
    32    23    18    1
    33    29    24    1
@<TRIPOS>MOLECULE
*****
 29 33 0 0 0
SMALL
GASTEIGER

@<TRIPOS>ATOM
      1 C         142.5904  139.8414  165.1385 C.ar    1  UNL1        0.0198
      2 C         144.0368  139.6529  164.7890 C.ar    1  UNL1        0.1006
      3 N         144.4235  139.2148  163.4075 N.ar    1  UNL1       -0.2246
      4 C         143.3638  138.9653  162.3756 C.ar    1  UNL1        0.1702
      5 N         143.4414  138.5294  160.9424 N.ar    1  UNL1       -0.2052
      6 C         142.0428  138.4486  160.4062 C.ar    1  UNL1        0.1647
      7 S         141.1010  138.8345  161.5081 S.2     1  UNL1       -0.0499
      8 C         141.9174  139.1538  162.7252 C.ar    1  UNL1        0.0679
      9 C         141.5307  139.5918  164.1067 C.ar    1  UNL1        0.0112
     10 C         141.4299  141.1556  169.2830 C.ar    1  UNL1        0.0684
     11 C         142.2698  139.9273  169.0933 C.ar    1  UNL1        0.0103
     12 C         142.6566  139.4893  167.7118 C.ar    1  UNL1        0.0007
     13 C         142.2036  140.2795  166.5201 C.ar    1  UNL1        0.0016
     14 C         141.3637  141.5078  166.7098 C.ar    1  UNL1        0.0007
     15 C         140.9769  141.9459  168.0912 C.ar    1  UNL1        0.0103
     16 N         140.6563  142.0318  172.0459 N.1     1  UNL1       -0.1908
     17 C         141.0431  141.5937  170.6645 C.1     1  UNL1        0.1004
     18 N         141.6542  138.0516  159.0128 N.pl3   1  UNL1       -0.2880
     19 C         140.2709  138.3393  158.5092 C.3     1  UNL1        0.0940
     20 C         139.8823  137.9423  157.1159 C.3     1  UNL1        0.0375
     21 C         140.8771  137.2577  156.2262 C.3     1  UNL1        0.0609
     22 C         142.2604  136.9700  156.7298 C.3     1  UNL1        0.0375
     23 C         142.6490  137.3670  158.1231 C.3     1  UNL1        0.0940
     24 N         140.4885  136.8607  154.8328 N.3     1  UNL1       -0.2738
     25 C         141.4510  136.0932  153.9757 C.3     1  UNL1        0.0720
     26 C         141.0625  135.6962  152.5824 C.3     1  UNL1        0.0174
     27 C         139.7115  136.0667  152.0461 C.3     1  UNL1        0.0029
     28 C         138.7491  136.8342  152.9032 C.3     1  UNL1        0.0174
     29 C         139.1376  137.2312  154.2965 C.3     1  UNL1        0.0720
@<TRIPOS>BOND
     1    16    17    3
     2    17    10    1
     3    10    11   ar
     4    11    12   ar
     5    12    13   ar
     6    13     1    1
     7     1     2   ar
     8     2     3   ar
     9     3     4   ar
    10     4     5   ar
    11     5     6   ar
    12     6    18    1
    13    18    19    1
    14    19    20    1
    15    20    21    1
    16    21    24    1
    17    24    25    1
    18    25    26    1
    19    26    27    1
    20    27    28    1
    21    28    29    1
    22    21    22    1
    23    22    23    1
    24     6     7   ar
    25     7     8   ar
    26     8     9   ar
    27    13    14   ar
    28    14    15   ar
    29    15    10   ar
    30     9     1   ar
    31     8     4   ar
    32    23    18    1
    33    29    24    1
@<TRIPOS>MOLECULE
*****
 29 33 0 0 0
SMALL
GASTEIGER

@<TRIPOS>ATOM
      1 C         140.7352  137.3369  155.8249 C.ar    1  UNL1        0.0198
      2 C         139.2421  137.1980  155.7908 C.ar    1  UNL1        0.1006
      3 N         138.3751  138.4219  155.7760 N.ar    1  UNL1       -0.2246
      4 C         139.0013  139.7848  155.7954 C.ar    1  UNL1        0.1702
      5 N         138.4076  141.1624  155.7873 N.ar    1  UNL1       -0.2052
      6 C         139.5338  142.1527  155.8164 C.ar    1  UNL1        0.1647
      7 S         140.8235  141.3872  155.8425 S.2     1  UNL1       -0.0499
      8 C         140.4944  139.9238  155.8295 C.ar    1  UNL1        0.0679
      9 C         141.3614  138.6999  155.8443 C.ar    1  UNL1        0.0112
     10 C         143.3364  133.6651  155.8693 C.ar    1  UNL1        0.0684
     11 C         142.0954  133.6949  155.0273 C.ar    1  UNL1        0.0103
     12 C         141.2283  134.9189  155.0125 C.ar    1  UNL1        0.0007
     13 C         141.6023  136.1129  155.8397 C.ar    1  UNL1        0.0016
     14 C         142.8432  136.0831  156.6818 C.ar    1  UNL1        0.0007
     15 C         143.7103  134.8592  156.6966 C.ar    1  UNL1        0.0103
     16 N         145.0704  131.2173  155.8990 N.1     1  UNL1       -0.1908
     17 C         144.2034  132.4412  155.8842 C.1     1  UNL1        0.1004
     18 N         139.3948  143.6463  155.8191 N.pl3   1  UNL1       -0.2880
     19 C         138.2153  144.2909  155.1532 C.3     1  UNL1        0.0940
     20 C         138.0763  145.7844  155.1558 C.3     1  UNL1        0.0375
     21 C         139.1167  146.6333  155.8242 C.3     1  UNL1        0.0609
     22 C         140.2961  145.9887  156.4901 C.3     1  UNL1        0.0375
     23 C         140.4352  144.4952  156.4875 C.3     1  UNL1        0.0940
     24 N         138.9777  148.1269  155.8269 N.3     1  UNL1       -0.2738
     25 C         139.3568  148.9175  154.6098 C.3     1  UNL1        0.0720
     26 C         139.2178  150.4110  154.6124 C.3     1  UNL1        0.0174
     27 C         138.6997  151.1139  155.8320 C.3     1  UNL1        0.0029
     28 C         138.3205  150.3232  157.0490 C.3     1  UNL1        0.0174
     29 C         138.4595  148.8297  157.0465 C.3     1  UNL1        0.0720
@<TRIPOS>BOND
     1    16    17    3
     2    17    10    1
     3    10    11   ar
     4    11    12   ar
     5    12    13   ar
     6    13     1    1
     7     1     2   ar
     8     2     3   ar
     9     3     4   ar
    10     4     5   ar
    11     5     6   ar
    12     6    18    1
    13    18    19    1
    14    19    20    1
    15    20    21    1
    16    21    24    1
    17    24    25    1
    18    25    26    1
    19    26    27    1
    20    27    28    1
    21    28    29    1
    22    21    22    1
    23    22    23    1
    24     6     7   ar
    25     7     8   ar
    26     8     9   ar
    27    13    14   ar
    28    14    15   ar
    29    15    10   ar
    30     9     1   ar
    31     8     4   ar
    32    23    18    1
    33    29    24    1
@<TRIPOS>MOLECULE
*****
 29 33 0 0 0
SMALL
GASTEIGER

@<TRIPOS>ATOM
      1 C         142.8607  137.0815  157.5320 C.ar    1  UNL1        0.0198
      2 C         143.0630  138.4550  156.9641 C.ar    1  UNL1        0.1006
      3 N         143.0399  139.6513  157.8686 N.ar    1  UNL1       -0.2246
      4 C         142.8144  139.4742  159.3409 C.ar    1  UNL1        0.1702
      5 N         142.7405  140.4584  160.4706 N.ar    1  UNL1       -0.2052
      6 C         142.4924  139.6931  161.7366 C.ar    1  UNL1        0.1647
      7 S         142.4131  138.2360  161.3894 S.2     1  UNL1       -0.0499
      8 C         142.6121  138.1007  159.9088 C.ar    1  UNL1        0.0679
      9 C         142.6352  136.9044  159.0044 C.ar    1  UNL1        0.0112
     10 C         142.9300  133.4922  154.8186 C.ar    1  UNL1        0.0684
     11 C         143.3735  133.3622  156.2456 C.ar    1  UNL1        0.0103
     12 C         143.3504  134.5587  157.1501 C.ar    1  UNL1        0.0007
     13 C         142.8838  135.8850  156.6275 C.ar    1  UNL1        0.0016
     14 C         142.4403  136.0149  155.2005 C.ar    1  UNL1        0.0007
     15 C         142.4634  134.8186  154.2960 C.ar    1  UNL1        0.0103
     16 N         142.9762  131.0994  153.0097 N.1     1  UNL1       -0.1908
     17 C         142.9531  132.2958  153.9141 C.1     1  UNL1        0.1004
     18 N         142.3489  140.2816  163.1089 N.pl3   1  UNL1       -0.2880
     19 C         143.5349  140.9008  163.7872 C.3     1  UNL1        0.0940
     20 C         143.3914  141.4893  165.1594 C.3     1  UNL1        0.0375
     21 C         142.0620  141.4585  165.8534 C.3     1  UNL1        0.0609
     22 C         140.8761  140.8393  165.1751 C.3     1  UNL1        0.0375
     23 C         141.0195  140.2509  163.8028 C.3     1  UNL1        0.0940
     24 N         141.9185  142.0470  167.2257 N.3     1  UNL1       -0.2738
     25 C         143.0761  142.0176  168.1791 C.3     1  UNL1        0.0720
     26 C         142.9327  142.6061  169.5514 C.3     1  UNL1        0.0174
     27 C         141.6316  143.2239  169.9702 C.3     1  UNL1        0.0029
     28 C         140.4740  143.2533  169.0167 C.3     1  UNL1        0.0174
     29 C         140.6174  142.6648  167.6445 C.3     1  UNL1        0.0720
@<TRIPOS>BOND
     1    16    17    3
     2    17    10    1
     3    10    11   ar
     4    11    12   ar
     5    12    13   ar
     6    13     1    1
     7     1     2   ar
     8     2     3   ar
     9     3     4   ar
    10     4     5   ar
    11     5     6   ar
    12     6    18    1
    13    18    19    1
    14    19    20    1
    15    20    21    1
    16    21    24    1
    17    24    25    1
    18    25    26    1
    19    26    27    1
    20    27    28    1
    21    28    29    1
    22    21    22    1
    23    22    23    1
    24     6     7   ar
    25     7     8   ar
    26     8     9   ar
    27    13    14   ar
    28    14    15   ar
    29    15    10   ar
    30     9     1   ar
    31     8     4   ar
    32    23    18    1
    33    29    24    1
@<TRIPOS>MOLECULE
*****
 29 33 0 0 0
SMALL
GASTEIGER

@<TRIPOS>ATOM
      1 C         139.1163  142.3942  156.5505 C.ar    1  UNL1        0.0198
      2 C         138.0713  141.7305  157.3975 C.ar    1  UNL1        0.1006
      3 N         138.1244  140.2498  157.6310 N.ar    1  UNL1       -0.2246
      4 C         139.2226  139.4327  157.0175 C.ar    1  UNL1        0.1702
      5 N         139.5318  137.9658  157.0707 N.ar    1  UNL1       -0.2052
      6 C         140.7680  137.7230  156.2566 C.ar    1  UNL1        0.1647
      7 S         141.2228  139.0397  155.7003 S.2     1  UNL1       -0.0499
      8 C         140.2677  140.0964  156.1706 C.ar    1  UNL1        0.0679
      9 C         140.2145  141.5771  155.9371 C.ar    1  UNL1        0.0112
     10 C         138.9571  146.8365  155.8499 C.ar    1  UNL1        0.0684
     11 C         138.0570  145.9220  155.0730 C.ar    1  UNL1        0.0103
     12 C         138.1101  144.4412  155.3066 C.ar    1  UNL1        0.0007
     13 C         139.0632  143.8750  156.3169 C.ar    1  UNL1        0.0016
     14 C         139.9633  144.7895  157.0938 C.ar    1  UNL1        0.0007
     15 C         139.9103  146.2702  156.8602 C.ar    1  UNL1        0.0103
     16 N         138.8509  149.7980  155.3828 N.1     1  UNL1       -0.1908
     17 C         138.9040  148.3172  155.6163 C.1     1  UNL1        0.1004
     18 N         141.4328  136.3963  156.0372 N.pl3   1  UNL1       -0.2880
     19 C         140.8377  135.4088  155.0777 C.3     1  UNL1        0.0940
     20 C         141.5024  134.0821  154.8583 C.3     1  UNL1        0.0375
     21 C         142.7622  133.7430  155.5985 C.3     1  UNL1        0.0609
     22 C         143.3572  134.7305  156.5580 C.3     1  UNL1        0.0375
     23 C         142.6926  136.0571  156.7774 C.3     1  UNL1        0.0940
     24 N         143.4269  132.4163  155.3791 N.3     1  UNL1       -0.2738
     25 C         144.2238  131.7852  156.4822 C.3     1  UNL1        0.0720
     26 C         144.8885  130.4586  156.2629 C.3     1  UNL1        0.0174
     27 C         144.7564  129.7631  154.9405 C.3     1  UNL1        0.0029
     28 C         143.9596  130.3941  153.8375 C.3     1  UNL1        0.0174
     29 C         143.2948  131.7208  154.0568 C.3     1  UNL1        0.0720
@<TRIPOS>BOND
     1    16    17    3
     2    17    10    1
     3    10    11   ar
     4    11    12   ar
     5    12    13   ar
     6    13     1    1
     7     1     2   ar
     8     2     3   ar
     9     3     4   ar
    10     4     5   ar
    11     5     6   ar
    12     6    18    1
    13    18    19    1
    14    19    20    1
    15    20    21    1
    16    21    24    1
    17    24    25    1
    18    25    26    1
    19    26    27    1
    20    27    28    1
    21    28    29    1
    22    21    22    1
    23    22    23    1
    24     6     7   ar
    25     7     8   ar
    26     8     9   ar
    27    13    14   ar
    28    14    15   ar
    29    15    10   ar
    30     9     1   ar
    31     8     4   ar
    32    23    18    1
    33    29    24    1
