@<TRIPOS>MOLECULE
*****
 38 41 0 0 0
SMALL
GASTEIGER

@<TRIPOS>ATOM
      1 C         142.8641  138.9833  164.7763 C.ar    1  UNL1       -0.0206
      2 C         144.0358  139.3812  163.9286 C.ar    1  UNL1       -0.0042
      3 C         144.1283  138.9095  162.5078 C.ar    1  UNL1       -0.0003
      4 C         143.0489  138.0397  161.9345 C.ar    1  UNL1        0.0001
      5 C         141.8771  137.6417  162.7822 C.ar    1  UNL1       -0.0003
      6 C         141.7847  138.1135  164.2030 C.ar    1  UNL1       -0.0042
      7 C         142.9494  139.0680  170.0552 C.3     1  UNL1        0.0897
      8 N         142.8108  139.4940  168.6236 N.3     1  UNL1       -0.2708
      9 C         142.4476  140.8680  168.1437 C.3     1  UNL1        0.0816
     10 C         142.4234  140.8438  166.6441 C.3     1  UNL1        0.0981
     11 C         142.7716  139.4550  166.1972 C.3     1  UNL1        0.0483
     12 C         143.0110  138.6207  167.4205 C.3     1  UNL1        0.0770
     13 C         142.1066  142.0048  165.7487 C.2     1  UNL1        0.2274
     14 O         143.0308  143.1850  165.6955 O.2     1  UNL1       -0.2747
     15 N         140.8655  141.9856  164.9064 N.am    1  UNL1       -0.2839
     16 H         140.2589  141.2110  164.9413 H       1  UNL1        0.1549
     17 C         140.5487  143.1466  164.0110 C.ar    1  UNL1        0.0504
     18 C         141.4587  143.4813  162.8665 C.ar    1  UNL1        0.0155
     19 C         141.1419  144.6422  161.9711 C.ar    1  UNL1        0.0127
     20 C         139.9150  145.4685  162.2202 C.ar    1  UNL1        0.0578
     21 CL        139.5982  146.6295  161.3248 Cl      1  UNL1       -0.0822
     22 C         139.0050  145.1339  163.3647 C.ar    1  UNL1        0.0127
     23 C         139.3219  143.9729  164.2601 C.ar    1  UNL1        0.0155
     24 C         143.1414  137.5680  160.5136 C.2     1  UNL1        0.0047
     25 C         142.5075  138.3686  159.4149 C.2     1  UNL1        0.0580
     26 C         142.5999  137.8969  157.9940 C.2     1  UNL1        0.2497
     27 O         143.7197  138.3733  157.1170 O.2     1  UNL1       -0.2698
     28 N         141.5726  136.9489  157.4500 N.am    1  UNL1       -0.2794
     29 H         140.8377  136.6362  158.0256 H       1  UNL1        0.1552
     30 C         141.6652  136.4773  156.0291 C.ar    1  UNL1        0.0636
     31 C         140.9995  137.2580  154.9348 C.ar    1  UNL1        0.0159
     32 C         141.0921  136.7863  153.5140 C.ar    1  UNL1        0.0014
     33 C         141.8503  135.5340  153.1873 C.ar    1  UNL1        0.0013
     34 C         142.5160  134.7533  154.2816 C.ar    1  UNL1        0.0153
     35 C         142.4234  135.2249  155.7025 C.ar    1  UNL1        0.0552
     36 N         143.0891  134.4443  156.7967 N.pl3   1  UNL1       -0.3560
     37 H         143.5868  133.6223  156.5823 H       1  UNL1        0.1424
     38 H         143.0284  134.7538  157.7293 H       1  UNL1        0.1424
@<TRIPOS>BOND
     1     7     8    1
     2     8     9    1
     3     9    10    1
     4    10    13    1
     5    13    14    2
     6    13    15   am
     7    15    17    1
     8    17    18   ar
     9    18    19   ar
    10    19    20   ar
    11    20    21    1
    12    20    22   ar
    13    22    23   ar
    14    10    11    1
    15    11     1    1
    16     1     2   ar
    17     2     3   ar
    18     3     4   ar
    19     4    24    1
    20    24    25    2
    21    25    26    1
    22    26    27    2
    23    26    28   am
    24    28    30    1
    25    30    31   ar
    26    31    32   ar
    27    32    33   ar
    28    33    34   ar
    29    34    35   ar
    30    35    36    1
    31     4     5   ar
    32     5     6   ar
    33    11    12    1
    34    12     8    1
    35    23    17   ar
    36     6     1   ar
    37    35    30   ar
    38    15    16    1
    39    28    29    1
    40    36    37    1
    41    36    38    1
@<TRIPOS>MOLECULE
*****
 38 41 0 0 0
SMALL
GASTEIGER

@<TRIPOS>ATOM
      1 C         140.7847  141.5066  160.2173 C.ar    1  UNL1       -0.0206
      2 C         141.9702  140.8708  160.8808 C.ar    1  UNL1       -0.0042
      3 C         142.5634  139.6153  160.3135 C.ar    1  UNL1       -0.0003
      4 C         141.9711  138.9955  159.0826 C.ar    1  UNL1        0.0001
      5 C         140.7856  139.6313  158.4190 C.ar    1  UNL1       -0.0003
      6 C         140.1924  140.8868  158.9864 C.ar    1  UNL1       -0.0042
      7 C         139.6017  146.5921  161.0035 C.3     1  UNL1        0.0897
      8 N         139.6477  145.0997  161.1459 N.3     1  UNL1       -0.2708
      9 C         138.9093  144.2884  162.1691 C.3     1  UNL1        0.0816
     10 C         139.2455  142.8437  161.9457 C.3     1  UNL1        0.0981
     11 C         140.1915  142.7620  160.7845 C.3     1  UNL1        0.0483
     12 C         140.4401  144.1563  160.2902 C.3     1  UNL1        0.0770
     13 C         138.7266  141.6842  162.7435 C.2     1  UNL1        0.2274
     14 O         137.3251  141.1942  162.5300 O.2     1  UNL1       -0.2747
     15 N         139.6093  141.0148  163.7548 N.am    1  UNL1       -0.2839
     16 H         140.5291  141.3364  163.8950 H       1  UNL1        0.1549
     17 C         139.0904  139.8553  164.5526 C.ar    1  UNL1        0.0504
     18 C         139.2575  138.4563  164.0381 C.ar    1  UNL1        0.0155
     19 C         138.7386  137.2969  164.8360 C.ar    1  UNL1        0.0127
     20 C         138.0527  137.5365  166.1482 C.ar    1  UNL1        0.0578
     21 CL        137.5338  136.3770  166.9460 Cl      1  UNL1       -0.0822
     22 C         137.8856  138.9355  166.6627 C.ar    1  UNL1        0.0127
     23 C         138.4045  140.0949  165.8649 C.ar    1  UNL1        0.0155
     24 C         142.5643  137.7400  158.5154 C.2     1  UNL1        0.0047
     25 C         142.5852  137.5246  157.0310 C.2     1  UNL1        0.0580
     26 C         143.1784  136.2691  156.4637 C.2     1  UNL1        0.2497
     27 O         144.4727  136.3263  155.7077 O.2     1  UNL1       -0.2698
     28 N         142.4774  134.9565  156.6523 N.am    1  UNL1       -0.2794
     29 H         141.6279  134.9189  157.1485 H       1  UNL1        0.1552
     30 C         143.0707  133.7011  156.0849 C.ar    1  UNL1        0.0636
     31 C         142.6727  133.2356  154.7156 C.ar    1  UNL1        0.0159
     32 C         143.2660  131.9802  154.1483 C.ar    1  UNL1        0.0014
     33 C         144.2574  131.1902  154.9503 C.ar    1  UNL1        0.0013
     34 C         144.6554  131.6557  156.3196 C.ar    1  UNL1        0.0153
     35 C         144.0621  132.9111  156.8869 C.ar    1  UNL1        0.0552
     36 N         144.4601  133.3766  158.2562 N.pl3   1  UNL1       -0.3560
     37 H         145.1108  132.8581  158.7825 H       1  UNL1        0.1424
     38 H         144.0707  134.2005  158.6285 H       1  UNL1        0.1424
@<TRIPOS>BOND
     1     7     8    1
     2     8     9    1
     3     9    10    1
     4    10    13    1
     5    13    14    2
     6    13    15   am
     7    15    17    1
     8    17    18   ar
     9    18    19   ar
    10    19    20   ar
    11    20    21    1
    12    20    22   ar
    13    22    23   ar
    14    10    11    1
    15    11     1    1
    16     1     2   ar
    17     2     3   ar
    18     3     4   ar
    19     4    24    1
    20    24    25    2
    21    25    26    1
    22    26    27    2
    23    26    28   am
    24    28    30    1
    25    30    31   ar
    26    31    32   ar
    27    32    33   ar
    28    33    34   ar
    29    34    35   ar
    30    35    36    1
    31     4     5   ar
    32     5     6   ar
    33    11    12    1
    34    12     8    1
    35    23    17   ar
    36     6     1   ar
    37    35    30   ar
    38    15    16    1
    39    28    29    1
    40    36    37    1
    41    36    38    1
@<TRIPOS>MOLECULE
*****
 38 41 0 0 0
SMALL
GASTEIGER

@<TRIPOS>ATOM
      1 C         141.4865  143.3977  156.3679 C.ar    1  UNL1       -0.0206
      2 C         140.6770  142.1912  155.9949 C.ar    1  UNL1       -0.0042
      3 C         141.3303  140.8430  155.9218 C.ar    1  UNL1       -0.0003
      4 C         142.7933  140.7012  156.2216 C.ar    1  UNL1        0.0001
      5 C         143.6028  141.9076  156.5945 C.ar    1  UNL1       -0.0003
      6 C         142.9494  143.2559  156.6676 C.ar    1  UNL1       -0.0042
      7 C         139.4679  148.0808  154.9988 C.3     1  UNL1        0.0897
      8 N         139.9053  146.8986  155.8117 N.3     1  UNL1       -0.2708
      9 C         139.7504  146.7429  157.2957 C.3     1  UNL1        0.0816
     10 C         140.3239  145.4125  157.6845 C.3     1  UNL1        0.0981
     11 C         140.8332  144.7460  156.4410 C.3     1  UNL1        0.0483
     12 C         140.5746  145.6644  155.2836 C.3     1  UNL1        0.0770
     13 C         140.3784  144.8479  159.0731 C.2     1  UNL1        0.2274
     14 O         139.3500  143.8507  159.5182 O.2     1  UNL1       -0.2747
     15 N         141.4613  145.2804  160.0166 N.am    1  UNL1       -0.2839
     16 H         142.1363  145.9348  159.7245 H       1  UNL1        0.1549
     17 C         141.5158  144.7157  161.4053 C.ar    1  UNL1        0.0504
     18 C         142.2192  143.4154  161.6591 C.ar    1  UNL1        0.0155
     19 C         142.2737  142.8508  163.0477 C.ar    1  UNL1        0.0127
     20 C         141.6248  143.5865  164.1824 C.ar    1  UNL1        0.0578
     21 CL        141.6794  143.0219  165.5711 Cl      1  UNL1       -0.0822
     22 C         140.9215  144.8868  163.9286 C.ar    1  UNL1        0.0127
     23 C         140.8670  145.4514  162.5401 C.ar    1  UNL1        0.0155
     24 C         143.4465  139.3529  156.1484 C.2     1  UNL1        0.0047
     25 C         142.6116  138.1095  156.2310 C.2     1  UNL1        0.0580
     26 C         143.2648  136.7612  156.1579 C.2     1  UNL1        0.2497
     27 O         144.6877  136.6412  155.6988 O.2     1  UNL1       -0.2698
     28 N         142.4951  135.5329  156.5438 N.am    1  UNL1       -0.2794
     29 H         141.5611  135.6117  156.8451 H       1  UNL1        0.1552
     30 C         143.1483  134.1847  156.4706 C.ar    1  UNL1        0.0636
     31 C         143.1530  133.4226  155.1786 C.ar    1  UNL1        0.0159
     32 C         143.8063  132.0743  155.1055 C.ar    1  UNL1        0.0014
     33 C         144.4549  131.4882  156.3244 C.ar    1  UNL1        0.0013
     34 C         144.4503  132.2502  157.6164 C.ar    1  UNL1        0.0153
     35 C         143.7970  133.5985  157.6895 C.ar    1  UNL1        0.0552
     36 N         143.7923  134.3606  158.9814 N.pl3   1  UNL1       -0.3560
     37 H         144.2180  133.9759  159.7814 H       1  UNL1        0.1424
     38 H         143.3635  135.2455  159.0294 H       1  UNL1        0.1424
@<TRIPOS>BOND
     1     7     8    1
     2     8     9    1
     3     9    10    1
     4    10    13    1
     5    13    14    2
     6    13    15   am
     7    15    17    1
     8    17    18   ar
     9    18    19   ar
    10    19    20   ar
    11    20    21    1
    12    20    22   ar
    13    22    23   ar
    14    10    11    1
    15    11     1    1
    16     1     2   ar
    17     2     3   ar
    18     3     4   ar
    19     4    24    1
    20    24    25    2
    21    25    26    1
    22    26    27    2
    23    26    28   am
    24    28    30    1
    25    30    31   ar
    26    31    32   ar
    27    32    33   ar
    28    33    34   ar
    29    34    35   ar
    30    35    36    1
    31     4     5   ar
    32     5     6   ar
    33    11    12    1
    34    12     8    1
    35    23    17   ar
    36     6     1   ar
    37    35    30   ar
    38    15    16    1
    39    28    29    1
    40    36    37    1
    41    36    38    1
@<TRIPOS>MOLECULE
*****
 38 41 0 0 0
SMALL
GASTEIGER

@<TRIPOS>ATOM
      1 C         141.3501  143.2692  156.6602 C.ar    1  UNL1       -0.0206
      2 C         142.8455  143.1806  156.7366 C.ar    1  UNL1       -0.0042
      3 C         143.5206  141.8418  156.6941 C.ar    1  UNL1       -0.0003
      4 C         142.7003  140.5915  156.5752 C.ar    1  UNL1        0.0001
      5 C         141.2049  140.6801  156.4988 C.ar    1  UNL1       -0.0003
      6 C         140.5298  142.0189  156.5413 C.ar    1  UNL1       -0.0042
      7 C         138.9978  147.7567  155.1735 C.3     1  UNL1        0.0897
      8 N         139.5937  146.6707  156.0194 N.3     1  UNL1       -0.2708
      9 C         139.6781  146.6656  157.5171 C.3     1  UNL1        0.0816
     10 C         140.3463  145.3908  157.9393 C.3     1  UNL1        0.0981
     11 C         140.6749  144.6079  156.7027 C.3     1  UNL1        0.0483
     12 C         140.2097  145.3989  155.5161 C.3     1  UNL1        0.0770
     13 C         140.6353  144.9723  159.3505 C.2     1  UNL1        0.2274
     14 O         142.0537  144.8783  159.8294 O.2     1  UNL1       -0.2747
     15 N         139.5059  144.6478  160.2827 N.am    1  UNL1       -0.2839
     16 H         138.5749  144.7094  159.9684 H       1  UNL1        0.1549
     17 C         139.7948  144.2293  161.6939 C.ar    1  UNL1        0.0504
     18 C         139.6926  145.2281  162.8083 C.ar    1  UNL1        0.0155
     19 C         139.9815  144.8096  164.2194 C.ar    1  UNL1        0.0127
     20 C         140.3726  143.3923  164.5162 C.ar    1  UNL1        0.0578
     21 CL        140.6616  142.9738  165.9274 Cl      1  UNL1       -0.0822
     22 C         140.4749  142.3934  163.4018 C.ar    1  UNL1        0.0127
     23 C         140.1860  142.8119  161.9907 C.ar    1  UNL1        0.0155
     24 C         143.3755  139.2528  156.5326 C.2     1  UNL1        0.0047
     25 C         142.5887  138.0271  156.1739 C.2     1  UNL1        0.0580
     26 C         143.2638  136.6883  156.1314 C.2     1  UNL1        0.2497
     27 O         144.6913  136.5821  155.6833 O.2     1  UNL1       -0.2698
     28 N         142.5114  135.4556  156.5369 N.am    1  UNL1       -0.2794
     29 H         141.5744  135.5253  156.8310 H       1  UNL1        0.1552
     30 C         143.1865  134.1169  156.4944 C.ar    1  UNL1        0.0636
     31 C         143.2065  133.3271  155.2193 C.ar    1  UNL1        0.0159
     32 C         143.8817  131.9883  155.1768 C.ar    1  UNL1        0.0014
     33 C         144.5369  131.4394  156.4094 C.ar    1  UNL1        0.0013
     34 C         144.5170  132.2292  157.6845 C.ar    1  UNL1        0.0153
     35 C         143.8418  133.5679  157.7270 C.ar    1  UNL1        0.0552
     36 N         143.8218  134.3577  159.0020 N.pl3   1  UNL1       -0.3560
     37 H         144.2519  133.9974  159.8110 H       1  UNL1        0.1424
     38 H         143.3787  135.2364  159.0299 H       1  UNL1        0.1424
@<TRIPOS>BOND
     1     7     8    1
     2     8     9    1
     3     9    10    1
     4    10    13    1
     5    13    14    2
     6    13    15   am
     7    15    17    1
     8    17    18   ar
     9    18    19   ar
    10    19    20   ar
    11    20    21    1
    12    20    22   ar
    13    22    23   ar
    14    10    11    1
    15    11     1    1
    16     1     2   ar
    17     2     3   ar
    18     3     4   ar
    19     4    24    1
    20    24    25    2
    21    25    26    1
    22    26    27    2
    23    26    28   am
    24    28    30    1
    25    30    31   ar
    26    31    32   ar
    27    32    33   ar
    28    33    34   ar
    29    34    35   ar
    30    35    36    1
    31     4     5   ar
    32     5     6   ar
    33    11    12    1
    34    12     8    1
    35    23    17   ar
    36     6     1   ar
    37    35    30   ar
    38    15    16    1
    39    28    29    1
    40    36    37    1
    41    36    38    1
@<TRIPOS>MOLECULE
*****
 38 41 0 0 0
SMALL
GASTEIGER

@<TRIPOS>ATOM
      1 C         141.2902  141.5891  160.8300 C.ar    1  UNL1       -0.0206
      2 C         142.7518  141.2546  160.7878 C.ar    1  UNL1       -0.0042
      3 C         143.2141  139.9967  160.1140 C.ar    1  UNL1       -0.0003
      4 C         142.2149  139.0733  159.4823 C.ar    1  UNL1        0.0001
      5 C         140.7533  139.4079  159.5245 C.ar    1  UNL1       -0.0003
      6 C         140.2910  140.6657  160.1984 C.ar    1  UNL1       -0.0042
      7 C         139.5732  146.5178  161.6304 C.3     1  UNL1        0.0897
      8 N         140.0386  145.1124  161.8717 N.3     1  UNL1       -0.2708
      9 C         140.1940  144.4526  163.2099 C.3     1  UNL1        0.0816
     10 C         140.6818  143.0525  162.9825 C.3     1  UNL1        0.0981
     11 C         140.8279  142.8469  161.5038 C.3     1  UNL1        0.0483
     12 C         140.4303  144.1200  160.8173 C.3     1  UNL1        0.0770
     13 C         140.9725  142.0363  164.0469 C.2     1  UNL1        0.2274
     14 O         140.6056  140.5980  163.8309 O.2     1  UNL1       -0.2747
     15 N         141.6302  142.4585  165.3272 N.am    1  UNL1       -0.2839
     16 H         141.8710  143.4025  165.4690 H       1  UNL1        0.1549
     17 C         141.9209  141.4423  166.3917 C.ar    1  UNL1        0.0504
     18 C         142.7706  140.2473  166.0757 C.ar    1  UNL1        0.0155
     19 C         143.0613  139.2312  167.1401 C.ar    1  UNL1        0.0127
     20 C         142.5022  139.4102  168.5205 C.ar    1  UNL1        0.0578
     21 CL        142.7929  138.3940  169.5850 Cl      1  UNL1       -0.0822
     22 C         141.6525  140.6052  168.8365 C.ar    1  UNL1        0.0127
     23 C         141.3618  141.6213  167.7721 C.ar    1  UNL1        0.0155
     24 C         142.6773  137.8155  158.8085 C.2     1  UNL1        0.0047
     25 C         142.7436  137.7475  157.3115 C.2     1  UNL1        0.0580
     26 C         143.2059  136.4897  156.6376 C.2     1  UNL1        0.2497
     27 O         144.4656  136.4947  155.8233 O.2     1  UNL1       -0.2698
     28 N         142.4087  135.2269  156.7780 N.am    1  UNL1       -0.2794
     29 H         141.5819  135.2236  157.3125 H       1  UNL1        0.1552
     30 C         142.8711  133.9692  156.1041 C.ar    1  UNL1        0.0636
     31 C         142.4208  133.6573  154.7077 C.ar    1  UNL1        0.0159
     32 C         142.8833  132.3995  154.0338 C.ar    1  UNL1        0.0014
     33 C         143.7961  131.4536  154.7564 C.ar    1  UNL1        0.0013
     34 C         144.2465  131.7655  156.1528 C.ar    1  UNL1        0.0153
     35 C         143.7840  133.0233  156.8266 C.ar    1  UNL1        0.0552
     36 N         144.2343  133.3352  158.2230 N.pl3   1  UNL1       -0.3560
     37 H         144.8335  132.7144  158.6972 H       1  UNL1        0.1424
     38 H         143.9308  134.1607  158.6653 H       1  UNL1        0.1424
@<TRIPOS>BOND
     1     7     8    1
     2     8     9    1
     3     9    10    1
     4    10    13    1
     5    13    14    2
     6    13    15   am
     7    15    17    1
     8    17    18   ar
     9    18    19   ar
    10    19    20   ar
    11    20    21    1
    12    20    22   ar
    13    22    23   ar
    14    10    11    1
    15    11     1    1
    16     1     2   ar
    17     2     3   ar
    18     3     4   ar
    19     4    24    1
    20    24    25    2
    21    25    26    1
    22    26    27    2
    23    26    28   am
    24    28    30    1
    25    30    31   ar
    26    31    32   ar
    27    32    33   ar
    28    33    34   ar
    29    34    35   ar
    30    35    36    1
    31     4     5   ar
    32     5     6   ar
    33    11    12    1
    34    12     8    1
    35    23    17   ar
    36     6     1   ar
    37    35    30   ar
    38    15    16    1
    39    28    29    1
    40    36    37    1
    41    36    38    1
@<TRIPOS>MOLECULE
*****
 38 41 0 0 0
SMALL
GASTEIGER

@<TRIPOS>ATOM
      1 C         140.7551  141.6759  161.1339 C.ar    1  UNL1       -0.0206
      2 C         142.1797  141.2234  161.2596 C.ar    1  UNL1       -0.0042
      3 C         142.6471  140.0038  160.5219 C.ar    1  UNL1       -0.0003
      4 C         141.6899  139.2366  159.6585 C.ar    1  UNL1        0.0001
      5 C         140.2653  139.6891  159.5329 C.ar    1  UNL1       -0.0003
      6 C         139.7980  140.9087  160.2705 C.ar    1  UNL1       -0.0042
      7 C         138.9025  144.8484  164.9265 C.3     1  UNL1        0.0897
      8 N         139.4361  144.3537  163.6148 N.3     1  UNL1       -0.2708
      9 C         139.7005  145.1907  162.3984 C.3     1  UNL1        0.0816
     10 C         140.2268  144.2894  161.3210 C.3     1  UNL1        0.0981
     11 C         140.2877  142.8954  161.8715 C.3     1  UNL1        0.0483
     12 C         139.7990  142.9351  163.2891 C.3     1  UNL1        0.0770
     13 C         140.6227  144.7086  159.9362 C.2     1  UNL1        0.2274
     14 O         141.9665  145.3303  159.6962 O.2     1  UNL1       -0.2747
     15 N         139.6748  144.5059  158.7915 N.am    1  UNL1       -0.2839
     16 H         138.7929  144.0978  158.9490 H       1  UNL1        0.1549
     17 C         140.0708  144.9251  157.4067 C.ar    1  UNL1        0.0504
     18 C         139.8804  146.3476  156.9704 C.ar    1  UNL1        0.0155
     19 C         140.2763  146.7667  155.5857 C.ar    1  UNL1        0.0127
     20 C         140.8626  145.7633  154.6372 C.ar    1  UNL1        0.0578
     21 CL        141.2585  146.1825  153.2524 Cl      1  UNL1       -0.0822
     22 C         141.0529  144.3409  155.0735 C.ar    1  UNL1        0.0127
     23 C         140.6570  143.9218  156.4582 C.ar    1  UNL1        0.0155
     24 C         142.1574  138.0171  158.9209 C.2     1  UNL1        0.0047
     25 C         142.2555  138.0376  157.4242 C.2     1  UNL1        0.0580
     26 C         142.7229  136.8180  156.6865 C.2     1  UNL1        0.2497
     27 O         144.1088  136.7729  156.1144 O.2     1  UNL1       -0.2698
     28 N         141.8045  135.6436  156.5208 N.am    1  UNL1       -0.2794
     29 H         140.8949  135.6732  156.8963 H       1  UNL1        0.1552
     30 C         142.2721  134.4242  155.7831 C.ar    1  UNL1        0.0636
     31 C         141.9267  134.2456  154.3344 C.ar    1  UNL1        0.0159
     32 C         142.3943  133.0261  153.5967 C.ar    1  UNL1        0.0014
     33 C         143.2072  131.9852  154.3078 C.ar    1  UNL1        0.0013
     34 C         143.5526  132.1638  155.7565 C.ar    1  UNL1        0.0153
     35 C         143.0850  133.3833  156.4942 C.ar    1  UNL1        0.0552
     36 N         143.4304  133.5619  157.9429 N.pl3   1  UNL1       -0.3560
     37 H         143.9640  132.8787  158.4096 H       1  UNL1        0.1424
     38 H         143.1235  134.3623  158.4270 H       1  UNL1        0.1424
@<TRIPOS>BOND
     1     7     8    1
     2     8     9    1
     3     9    10    1
     4    10    13    1
     5    13    14    2
     6    13    15   am
     7    15    17    1
     8    17    18   ar
     9    18    19   ar
    10    19    20   ar
    11    20    21    1
    12    20    22   ar
    13    22    23   ar
    14    10    11    1
    15    11     1    1
    16     1     2   ar
    17     2     3   ar
    18     3     4   ar
    19     4    24    1
    20    24    25    2
    21    25    26    1
    22    26    27    2
    23    26    28   am
    24    28    30    1
    25    30    31   ar
    26    31    32   ar
    27    32    33   ar
    28    33    34   ar
    29    34    35   ar
    30    35    36    1
    31     4     5   ar
    32     5     6   ar
    33    11    12    1
    34    12     8    1
    35    23    17   ar
    36     6     1   ar
    37    35    30   ar
    38    15    16    1
    39    28    29    1
    40    36    37    1
    41    36    38    1
@<TRIPOS>MOLECULE
*****
 38 41 0 0 0
SMALL
GASTEIGER

@<TRIPOS>ATOM
      1 C         142.8911  139.1211  164.9753 C.ar    1  UNL1       -0.0206
      2 C         141.8887  138.2904  164.2303 C.ar    1  UNL1       -0.0042
      3 C         142.0723  138.0289  162.7648 C.ar    1  UNL1       -0.0003
      4 C         143.2584  138.5981  162.0441 C.ar    1  UNL1        0.0001
      5 C         144.2608  139.4289  162.7891 C.ar    1  UNL1       -0.0003
      6 C         144.0771  139.6904  164.2546 C.ar    1  UNL1       -0.0042
      7 C         142.9856  138.5681  170.2257 C.3     1  UNL1        0.0897
      8 N         142.7510  139.1285  168.8542 N.3     1  UNL1       -0.2708
      9 C         142.0991  140.4420  168.5381 C.3     1  UNL1        0.0816
     10 C         142.0723  140.5990  167.0466 C.3     1  UNL1        0.0981
     11 C         142.7076  139.3827  166.4409 C.3     1  UNL1        0.0483
     12 C         143.1270  138.4738  167.5580 C.3     1  UNL1        0.0770
     13 C         141.5091  141.7674  166.2931 C.2     1  UNL1        0.2274
     14 O         140.6818  142.7934  167.0093 O.2     1  UNL1       -0.2747
     15 N         141.7732  141.9098  164.8234 N.am    1  UNL1       -0.2839
     16 H         142.3162  141.2364  164.3533 H       1  UNL1        0.1549
     17 C         141.2099  143.0782  164.0699 C.ar    1  UNL1        0.0504
     18 C         139.8235  143.0065  163.5020 C.ar    1  UNL1        0.0155
     19 C         139.2603  144.1749  162.7486 C.ar    1  UNL1        0.0127
     20 C         140.0836  145.4149  162.5630 C.ar    1  UNL1        0.0578
     21 CL        139.5204  146.5833  161.8095 Cl      1  UNL1       -0.0822
     22 C         141.4701  145.4866  163.1308 C.ar    1  UNL1        0.0127
     23 C         142.0333  144.3183  163.8843 C.ar    1  UNL1        0.0155
     24 C         143.4419  138.3366  160.5786 C.2     1  UNL1        0.0047
     25 C         142.9332  139.3246  159.5710 C.2     1  UNL1        0.0580
     26 C         143.1167  139.0631  158.1054 C.2     1  UNL1        0.2497
     27 O         143.2222  137.6539  157.6025 O.2     1  UNL1       -0.2698
     28 N         143.1947  140.2108  157.1427 N.am    1  UNL1       -0.2794
     29 H         143.1254  141.1357  157.4728 H       1  UNL1        0.1552
     30 C         143.3782  139.9493  155.6772 C.ar    1  UNL1        0.0636
     31 C         142.1824  139.8554  154.7765 C.ar    1  UNL1        0.0159
     32 C         142.3660  139.5939  153.3110 C.ar    1  UNL1        0.0014
     33 C         143.7454  139.4262  152.7461 C.ar    1  UNL1        0.0013
     34 C         144.9412  139.5200  153.6467 C.ar    1  UNL1        0.0153
     35 C         144.7576  139.7816  155.1123 C.ar    1  UNL1        0.0552
     36 N         145.9534  139.8755  156.0129 N.pl3   1  UNL1       -0.3560
     37 H         146.8588  139.7654  155.6422 H       1  UNL1        0.1424
     38 H         145.8329  140.0471  156.9748 H       1  UNL1        0.1424
@<TRIPOS>BOND
     1     7     8    1
     2     8     9    1
     3     9    10    1
     4    10    13    1
     5    13    14    2
     6    13    15   am
     7    15    17    1
     8    17    18   ar
     9    18    19   ar
    10    19    20   ar
    11    20    21    1
    12    20    22   ar
    13    22    23   ar
    14    10    11    1
    15    11     1    1
    16     1     2   ar
    17     2     3   ar
    18     3     4   ar
    19     4    24    1
    20    24    25    2
    21    25    26    1
    22    26    27    2
    23    26    28   am
    24    28    30    1
    25    30    31   ar
    26    31    32   ar
    27    32    33   ar
    28    33    34   ar
    29    34    35   ar
    30    35    36    1
    31     4     5   ar
    32     5     6   ar
    33    11    12    1
    34    12     8    1
    35    23    17   ar
    36     6     1   ar
    37    35    30   ar
    38    15    16    1
    39    28    29    1
    40    36    37    1
    41    36    38    1
@<TRIPOS>MOLECULE
*****
 38 41 0 0 0
SMALL
GASTEIGER

@<TRIPOS>ATOM
      1 C         141.1783  138.3542  157.2415 C.ar    1  UNL1       -0.0206
      2 C         139.9582  138.5339  158.0954 C.ar    1  UNL1       -0.0042
      3 C         140.0878  138.5753  159.5892 C.ar    1  UNL1       -0.0003
      4 C         141.4374  138.4371  160.2292 C.ar    1  UNL1        0.0001
      5 C         142.6574  138.2574  159.3753 C.ar    1  UNL1       -0.0003
      6 C         142.5279  138.2160  157.8815 C.ar    1  UNL1       -0.0042
      7 C         139.8833  139.6006  152.2765 C.3     1  UNL1        0.0897
      8 N         140.4536  138.8857  153.4655 N.3     1  UNL1       -0.2708
      9 C         141.2458  137.6123  153.4322 C.3     1  UNL1        0.0816
     10 C         141.6136  137.2583  154.8427 C.3     1  UNL1        0.0981
     11 C         141.0488  138.3128  155.7477 C.3     1  UNL1        0.0483
     12 C         140.3319  139.3186  154.8965 C.3     1  UNL1        0.0770
     13 C         142.4070  136.0600  155.2727 C.2     1  UNL1        0.2274
     14 O         143.8597  135.9544  154.9141 O.2     1  UNL1       -0.2747
     15 N         141.7477  134.9675  156.0611 N.am    1  UNL1       -0.2839
     16 H         140.7943  135.0369  156.2964 H       1  UNL1        0.1549
     17 C         142.5411  133.7693  156.4911 C.ar    1  UNL1        0.0504
     18 C         142.1786  132.4067  155.9794 C.ar    1  UNL1        0.0155
     19 C         142.9719  131.2085  156.4093 C.ar    1  UNL1        0.0127
     20 C         144.1279  131.3730  157.3510 C.ar    1  UNL1        0.0578
     21 CL        144.9213  130.1747  157.7810 Cl      1  UNL1       -0.0822
     22 C         144.4905  132.7355  157.8627 C.ar    1  UNL1        0.0127
     23 C         143.6971  133.9337  157.4328 C.ar    1  UNL1        0.0155
     24 C         141.5668  138.4785  161.7230 C.2     1  UNL1        0.0047
     25 C         140.3404  138.4119  162.5841 C.2     1  UNL1        0.0580
     26 C         140.4698  138.4533  164.0779 C.2     1  UNL1        0.2497
     27 O         140.3245  137.1932  164.8785 O.2     1  UNL1       -0.2698
     28 N         140.7444  139.7548  164.7713 N.am    1  UNL1       -0.2794
     29 H         140.8398  140.5819  164.2458 H       1  UNL1        0.1552
     30 C         140.8738  139.7961  166.2651 C.ar    1  UNL1        0.0636
     31 C         139.6780  140.1141  167.1130 C.ar    1  UNL1        0.0159
     32 C         139.8074  140.1554  168.6068 C.ar    1  UNL1        0.0014
     33 C         141.1326  139.8787  169.2527 C.ar    1  UNL1        0.0013
     34 C         142.3284  139.5608  168.4048 C.ar    1  UNL1        0.0153
     35 C         142.1990  139.5195  166.9110 C.ar    1  UNL1        0.0552
     36 N         143.3948  139.2015  166.0631 N.pl3   1  UNL1       -0.3560
     37 H         144.2646  139.0199  166.4871 H       1  UNL1        0.1424
     38 H         143.3099  139.1744  165.0827 H       1  UNL1        0.1424
@<TRIPOS>BOND
     1     7     8    1
     2     8     9    1
     3     9    10    1
     4    10    13    1
     5    13    14    2
     6    13    15   am
     7    15    17    1
     8    17    18   ar
     9    18    19   ar
    10    19    20   ar
    11    20    21    1
    12    20    22   ar
    13    22    23   ar
    14    10    11    1
    15    11     1    1
    16     1     2   ar
    17     2     3   ar
    18     3     4   ar
    19     4    24    1
    20    24    25    2
    21    25    26    1
    22    26    27    2
    23    26    28   am
    24    28    30    1
    25    30    31   ar
    26    31    32   ar
    27    32    33   ar
    28    33    34   ar
    29    34    35   ar
    30    35    36    1
    31     4     5   ar
    32     5     6   ar
    33    11    12    1
    34    12     8    1
    35    23    17   ar
    36     6     1   ar
    37    35    30   ar
    38    15    16    1
    39    28    29    1
    40    36    37    1
    41    36    38    1
@<TRIPOS>MOLECULE
*****
 38 41 0 0 0
SMALL
GASTEIGER

@<TRIPOS>ATOM
      1 C         142.6959  139.3121  164.2002 C.ar    1  UNL1       -0.0206
      2 C         141.7011  138.2626  163.8017 C.ar    1  UNL1       -0.0042
      3 C         141.7960  137.6129  162.4530 C.ar    1  UNL1       -0.0003
      4 C         142.8857  138.0127  161.5029 C.ar    1  UNL1        0.0001
      5 C         143.8805  139.0622  161.9014 C.ar    1  UNL1       -0.0003
      6 C         143.7856  139.7119  163.2500 C.ar    1  UNL1       -0.0042
      7 C         142.6944  140.0542  169.4281 C.3     1  UNL1        0.0897
      8 N         142.6004  140.3030  167.9518 N.3     1  UNL1       -0.2708
      9 C         142.3098  141.6207  167.2965 C.3     1  UNL1        0.0816
     10 C         142.3103  141.4098  165.8114 C.3     1  UNL1        0.0981
     11 C         142.6011  139.9618  165.5488 C.3     1  UNL1        0.0483
     12 C         142.7804  139.2778  166.8717 C.3     1  UNL1        0.0770
     13 C         142.0632  142.4622  164.7714 C.2     1  UNL1        0.2274
     14 O         142.9174  143.6946  164.7339 O.2     1  UNL1       -0.2747
     15 N         140.9621  142.2821  163.7689 N.am    1  UNL1       -0.2839
     16 H         140.4014  141.4731  163.7935 H       1  UNL1        0.1549
     17 C         140.7150  143.3345  162.7289 C.ar    1  UNL1        0.0504
     18 C         139.9251  144.5613  163.0763 C.ar    1  UNL1        0.0155
     19 C         139.6781  145.6136  162.0363 C.ar    1  UNL1        0.0127
     20 C         140.2211  145.4391  160.6490 C.ar    1  UNL1        0.0578
     21 CL        139.9740  146.4915  159.6090 Cl      1  UNL1       -0.0822
     22 C         141.0110  144.2122  160.3016 C.ar    1  UNL1        0.0127
     23 C         141.2580  143.1599  161.3416 C.ar    1  UNL1        0.0155
     24 C         142.9805  137.3629  160.1542 C.2     1  UNL1        0.0047
     25 C         142.3864  138.0375  158.9534 C.2     1  UNL1        0.0580
     26 C         142.4812  137.3878  157.6047 C.2     1  UNL1        0.2497
     27 O         143.7310  137.5336  156.7882 O.2     1  UNL1       -0.2698
     28 N         141.3262  136.5923  157.0725 N.am    1  UNL1       -0.2794
     29 H         140.5059  136.4965  157.6084 H       1  UNL1        0.1552
     30 C         141.4211  135.9426  155.7238 C.ar    1  UNL1        0.0636
     31 C         142.2506  134.7059  155.5437 C.ar    1  UNL1        0.0159
     32 C         142.3454  134.0564  154.1950 C.ar    1  UNL1        0.0014
     33 C         141.6107  134.6435  153.0264 C.ar    1  UNL1        0.0013
     34 C         140.7812  135.8802  153.2066 C.ar    1  UNL1        0.0153
     35 C         140.6864  136.5298  154.5553 C.ar    1  UNL1        0.0552
     36 N         139.8569  137.7664  154.7355 N.pl3   1  UNL1       -0.3560
     37 H         139.3747  138.1518  153.9685 H       1  UNL1        0.1424
     38 H         139.7946  138.1928  155.6207 H       1  UNL1        0.1424
@<TRIPOS>BOND
     1     7     8    1
     2     8     9    1
     3     9    10    1
     4    10    13    1
     5    13    14    2
     6    13    15   am
     7    15    17    1
     8    17    18   ar
     9    18    19   ar
    10    19    20   ar
    11    20    21    1
    12    20    22   ar
    13    22    23   ar
    14    10    11    1
    15    11     1    1
    16     1     2   ar
    17     2     3   ar
    18     3     4   ar
    19     4    24    1
    20    24    25    2
    21    25    26    1
    22    26    27    2
    23    26    28   am
    24    28    30    1
    25    30    31   ar
    26    31    32   ar
    27    32    33   ar
    28    33    34   ar
    29    34    35   ar
    30    35    36    1
    31     4     5   ar
    32     5     6   ar
    33    11    12    1
    34    12     8    1
    35    23    17   ar
    36     6     1   ar
    37    35    30   ar
    38    15    16    1
    39    28    29    1
    40    36    37    1
    41    36    38    1
