@<TRIPOS>MOLECULE
*****
 37 41 0 0 0
SMALL
GASTEIGER

@<TRIPOS>ATOM
      1 C         138.0791  139.8480  160.3895 C.ar    1  UNL1        0.0503
      2 C         138.8364  138.5578  160.4986 C.ar    1  UNL1        0.0143
      3 C         139.5820  138.2300  161.7582 C.ar    1  UNL1       -0.0029
      4 C         139.5702  139.1923  162.9088 C.ar    1  UNL1       -0.0208
      5 C         138.8129  140.4825  162.7998 C.ar    1  UNL1       -0.0029
      6 C         138.0674  140.8103  161.5401 C.ar    1  UNL1        0.0143
      7 C         137.9923  140.9954  158.0601 C.2     1  UNL1        0.2313
      8 O         139.3967  141.4869  158.2500 O.2     1  UNL1       -0.2744
      9 N         137.3335  140.1759  159.1299 N.am    1  UNL1       -0.2836
     10 H         136.4117  139.8533  159.0054 H       1  UNL1        0.1549
     11 N         132.3188  139.3743  155.9094 N.pl3   1  UNL1       -0.3375
     12 C         133.6493  140.0647  155.8535 C.ar    1  UNL1        0.1560
     13 N         134.7159  140.0101  156.9068 N.ar    1  UNL1       -0.2287
     14 C         135.8726  140.8425  156.4388 C.ar    1  UNL1        0.0712
     15 C         135.5210  141.4116  155.0963 C.ar    1  UNL1        0.0239
     16 S         134.1469  140.9309  154.7346 S.2     1  UNL1       -0.0567
     17 C         136.6777  142.2440  154.6283 C.3     1  UNL1        0.0351
     18 C         137.7442  142.1894  155.6816 C.3     1  UNL1        0.0204
     19 C         137.2467  141.3233  156.8005 C.3     1  UNL1        0.1174
     20 H         132.0821  138.8243  156.6909 H       1  UNL1        0.1442
     21 H         131.6823  139.4712  155.1646 H       1  UNL1        0.1442
     22 C         140.3158  138.8644  164.1684 C.3     1  UNL1        0.0420
     23 C         139.6501  139.0394  165.5012 C.3     1  UNL1        0.0585
     24 C         138.2778  138.5598  165.8710 C.3     1  UNL1        0.0175
     25 C         138.0195  138.9488  167.2965 C.3     1  UNL1        0.0199
     26 C         139.2321  139.6687  167.8076 C.3     1  UNL1        0.0855
     27 N         140.2399  139.7248  166.6981 N.3     1  UNL1       -0.2971
     28 H         141.0954  139.2482  166.9832 H       1  UNL1        0.1233
     29 C         139.4062  140.2335  169.1863 C.3     1  UNL1        0.1470
     30 O         138.3587  139.9938  170.2328 O.3     1  UNL1       -0.3787
     31 H         137.6416  139.4601  169.8562 H       1  UNL1        0.2108
     32 C         140.6279  141.0380  169.5184 C.ar    1  UNL1        0.0055
     33 C         140.5353  142.5310  169.6298 C.ar    1  UNL1       -0.0019
     34 C         141.7570  143.3354  169.9619 C.ar    1  UNL1       -0.0002
     35 C         143.0713  142.6470  170.1826 C.ar    1  UNL1       -0.0000
     36 C         143.1638  141.1540  170.0712 C.ar    1  UNL1       -0.0002
     37 C         141.9421  140.3495  169.7391 C.ar    1  UNL1       -0.0019
@<TRIPOS>BOND
     1    11    12    1
     2    12    13   ar
     3    13    14   ar
     4    14    15   ar
     5    15    16   ar
     6    15    17    1
     7    17    18    1
     8    18    19    1
     9    19     7    1
    10     7     8    2
    11     7     9   am
    12     9     1    1
    13     1     2   ar
    14     2     3   ar
    15     3     4   ar
    16     4    22    1
    17    23    22    1
    18    23    24    1
    19    24    25    1
    20    26    25    1
    21    26    29    1
    22    29    30    1
    23    29    32    1
    24    32    33   ar
    25    33    34   ar
    26    34    35   ar
    27    35    36   ar
    28    36    37   ar
    29    26    27    1
    30     4     5   ar
    31     5     6   ar
    32    16    12   ar
    33     6     1   ar
    34    19    14    1
    35    27    23    1
    36    37    32   ar
    37    11    20    1
    38    11    21    1
    39     9    10    1
    40    30    31    1
    41    27    28    1
@<TRIPOS>MOLECULE
*****
 37 41 0 0 0
SMALL
GASTEIGER

@<TRIPOS>ATOM
      1 C         139.2618  138.8846  159.7804 C.ar    1  UNL1        0.0503
      2 C         140.7537  138.7377  159.8333 C.ar    1  UNL1        0.0143
      3 C         141.4138  138.2333  161.0823 C.ar    1  UNL1       -0.0029
      4 C         140.5821  137.8758  162.2783 C.ar    1  UNL1       -0.0208
      5 C         139.0903  138.0227  162.2254 C.ar    1  UNL1       -0.0029
      6 C         138.4302  138.5271  160.9764 C.ar    1  UNL1        0.0143
      7 C         138.1617  140.8202  158.4413 C.2     1  UNL1        0.2313
      8 O         138.3820  141.7470  159.5999 O.2     1  UNL1       -0.2744
      9 N         138.6017  139.3890  158.5315 N.am    1  UNL1       -0.2836
     10 H         138.4571  138.7807  157.7710 H       1  UNL1        0.1549
     11 N         132.6072  139.6264  155.7648 N.pl3   1  UNL1       -0.3375
     12 C         133.9498  140.2856  155.8779 C.ar    1  UNL1        0.1560
     13 N         134.9477  140.0708  156.9771 N.ar    1  UNL1       -0.2287
     14 C         136.1449  140.9277  156.6903 C.ar    1  UNL1        0.0712
     15 C         135.8870  141.6722  155.4139 C.ar    1  UNL1        0.0239
     16 S         134.5304  141.2754  154.9119 S.2     1  UNL1       -0.0567
     17 C         137.0842  142.5292  155.1271 C.3     1  UNL1        0.0351
     18 C         138.0820  142.3143  156.2263 C.3     1  UNL1        0.0204
     19 C         137.5016  141.3246  157.1923 C.3     1  UNL1        0.1174
     20 H         132.3131  138.9870  156.4531 H       1  UNL1        0.1442
     21 H         132.0199  139.8333  155.0021 H       1  UNL1        0.1442
     22 C         141.2423  137.3714  163.5272 C.3     1  UNL1        0.0420
     23 C         141.8727  138.3382  164.4852 C.3     1  UNL1        0.0585
     24 C         142.8146  137.9883  165.5989 C.3     1  UNL1        0.0175
     25 C         143.1959  139.2585  166.2998 C.3     1  UNL1        0.0199
     26 C         142.4898  140.3934  165.6191 C.3     1  UNL1        0.0855
     27 N         141.6720  139.8247  164.4977 N.3     1  UNL1       -0.2971
     28 H         141.9778  140.2227  163.6098 H       1  UNL1        0.1233
     29 C         142.5848  141.8427  165.9942 C.3     1  UNL1        0.1470
     30 O         143.0794  142.8453  164.9941 O.3     1  UNL1       -0.3787
     31 H         143.2933  142.3941  164.1625 H       1  UNL1        0.2108
     32 C         142.1851  142.2893  167.3692 C.ar    1  UNL1        0.0055
     33 C         140.7820  142.7515  167.6294 C.ar    1  UNL1       -0.0019
     34 C         140.3823  143.1981  169.0045 C.ar    1  UNL1       -0.0002
     35 C         141.3857  143.1825  170.1194 C.ar    1  UNL1       -0.0000
     36 C         142.7888  142.7203  169.8592 C.ar    1  UNL1       -0.0002
     37 C         143.1884  142.2737  168.4841 C.ar    1  UNL1       -0.0019
@<TRIPOS>BOND
     1    11    12    1
     2    12    13   ar
     3    13    14   ar
     4    14    15   ar
     5    15    16   ar
     6    15    17    1
     7    17    18    1
     8    18    19    1
     9    19     7    1
    10     7     8    2
    11     7     9   am
    12     9     1    1
    13     1     2   ar
    14     2     3   ar
    15     3     4   ar
    16     4    22    1
    17    23    22    1
    18    23    24    1
    19    24    25    1
    20    26    25    1
    21    26    29    1
    22    29    30    1
    23    29    32    1
    24    32    33   ar
    25    33    34   ar
    26    34    35   ar
    27    35    36   ar
    28    36    37   ar
    29    26    27    1
    30     4     5   ar
    31     5     6   ar
    32    16    12   ar
    33     6     1   ar
    34    19    14    1
    35    27    23    1
    36    37    32   ar
    37    11    20    1
    38    11    21    1
    39     9    10    1
    40    30    31    1
    41    27    28    1
@<TRIPOS>MOLECULE
*****
 37 41 0 0 0
SMALL
GASTEIGER

@<TRIPOS>ATOM
      1 C         139.0971  138.9904  159.9462 C.ar    1  UNL1        0.0503
      2 C         140.5803  138.7665  159.9362 C.ar    1  UNL1        0.0143
      3 C         141.2689  138.2493  161.1643 C.ar    1  UNL1       -0.0029
      4 C         140.4745  137.9559  162.4024 C.ar    1  UNL1       -0.0208
      5 C         138.9914  138.1798  162.4124 C.ar    1  UNL1       -0.0029
      6 C         138.3027  138.6971  161.1843 C.ar    1  UNL1        0.0143
      7 C         138.2874  140.9857  158.4924 C.2     1  UNL1        0.2313
      8 O         138.8553  141.9464  159.4947 O.2     1  UNL1       -0.2744
      9 N         138.4084  139.5077  158.7182 N.am    1  UNL1       -0.2836
     10 H         138.0357  138.8771  158.0603 H       1  UNL1        0.1549
     11 N         132.8305  139.5549  155.7326 N.pl3   1  UNL1       -0.3375
     12 C         134.1265  140.2949  155.8836 C.ar    1  UNL1        0.1560
     13 N         135.1335  140.0954  156.9772 N.ar    1  UNL1       -0.2287
     14 C         136.2724  141.0415  156.7370 C.ar    1  UNL1        0.0712
     15 C         135.9693  141.8257  155.4948 C.ar    1  UNL1        0.0239
     16 S         134.6431  141.3643  154.9674 S.2     1  UNL1       -0.0567
     17 C         137.1082  142.7719  155.2545 C.3     1  UNL1        0.0351
     18 C         138.1152  142.5723  156.3481 C.3     1  UNL1        0.0204
     19 C         137.5987  141.5029  157.2644 C.3     1  UNL1        0.1174
     20 H         132.5775  138.8663  156.3891 H       1  UNL1        0.1442
     21 H         132.2329  139.7578  154.9770 H       1  UNL1        0.1442
     22 C         141.1633  137.4387  163.6304 C.3     1  UNL1        0.0420
     23 C         141.7797  138.3981  164.6049 C.3     1  UNL1        0.0585
     24 C         142.8682  138.0799  165.5867 C.3     1  UNL1        0.0175
     25 C         143.1771  139.3293  166.3573 C.3     1  UNL1        0.0199
     26 C         142.2795  140.4196  165.8516 C.3     1  UNL1        0.0855
     27 N         141.4159  139.8441  164.7686 N.3     1  UNL1       -0.2971
     28 H         141.5789  140.3431  163.8941 H       1  UNL1        0.1233
     29 C         142.2507  141.8366  166.3428 C.3     1  UNL1        0.1470
     30 O         143.0615  142.2315  167.5414 O.3     1  UNL1       -0.3787
     31 H         143.5420  141.4581  167.8758 H       1  UNL1        0.2108
     32 C         141.4111  142.8586  165.6354 C.ar    1  UNL1        0.0055
     33 C         141.9740  143.6139  164.4681 C.ar    1  UNL1       -0.0019
     34 C         141.1344  144.6359  163.7607 C.ar    1  UNL1       -0.0002
     35 C         139.7318  144.9027  164.2205 C.ar    1  UNL1       -0.0000
     36 C         139.1688  144.1474  165.3878 C.ar    1  UNL1       -0.0002
     37 C         140.0085  143.1254  166.0952 C.ar    1  UNL1       -0.0019
@<TRIPOS>BOND
     1    11    12    1
     2    12    13   ar
     3    13    14   ar
     4    14    15   ar
     5    15    16   ar
     6    15    17    1
     7    17    18    1
     8    18    19    1
     9    19     7    1
    10     7     8    2
    11     7     9   am
    12     9     1    1
    13     1     2   ar
    14     2     3   ar
    15     3     4   ar
    16     4    22    1
    17    23    22    1
    18    23    24    1
    19    24    25    1
    20    26    25    1
    21    26    29    1
    22    29    30    1
    23    29    32    1
    24    32    33   ar
    25    33    34   ar
    26    34    35   ar
    27    35    36   ar
    28    36    37   ar
    29    26    27    1
    30     4     5   ar
    31     5     6   ar
    32    16    12   ar
    33     6     1   ar
    34    19    14    1
    35    27    23    1
    36    37    32   ar
    37    11    20    1
    38    11    21    1
    39     9    10    1
    40    30    31    1
    41    27    28    1
@<TRIPOS>MOLECULE
*****
 37 41 0 0 0
SMALL
GASTEIGER

@<TRIPOS>ATOM
      1 C         142.9790  138.9142  159.5197 C.ar    1  UNL1        0.0503
      2 C         142.6160  140.2832  159.0258 C.ar    1  UNL1        0.0143
      3 C         143.0962  141.4982  159.7630 C.ar    1  UNL1       -0.0029
      4 C         143.9394  141.3441  160.9939 C.ar    1  UNL1       -0.0208
      5 C         144.3024  139.9751  161.4878 C.ar    1  UNL1       -0.0029
      6 C         143.8222  138.7601  160.7506 C.ar    1  UNL1        0.0143
      7 C         142.9326  137.4609  157.3666 C.2     1  UNL1        0.2313
      8 O         143.8465  138.4375  156.6877 O.2     1  UNL1       -0.2744
      9 N         142.4989  137.6992  158.7826 N.am    1  UNL1       -0.2836
     10 H         141.8991  137.0581  159.2282 H       1  UNL1        0.1549
     11 N         144.2719  131.3465  157.8797 N.pl3   1  UNL1       -0.3375
     12 C         143.5816  132.5445  157.2980 C.ar    1  UNL1        0.1560
     13 N         143.7656  133.9672  157.7360 N.ar    1  UNL1       -0.2287
     14 C         142.8838  134.8321  156.8849 C.ar    1  UNL1        0.0712
     15 C         142.1546  133.9438  155.9209 C.ar    1  UNL1        0.0239
     16 S         142.5859  132.5300  156.1762 S.2     1  UNL1       -0.0567
     17 C         141.2727  134.8086  155.0698 C.3     1  UNL1        0.0351
     18 C         141.4569  136.2313  155.5078 C.3     1  UNL1        0.0204
     19 C         142.4525  136.2459  156.6295 C.3     1  UNL1        0.1174
     20 H         144.9129  131.4583  158.6185 H       1  UNL1        0.1442
     21 H         144.0840  130.4485  157.5227 H       1  UNL1        0.1442
     22 C         144.4195  142.5591  161.7310 C.3     1  UNL1        0.0420
     23 C         143.4646  143.3508  162.5744 C.3     1  UNL1        0.0585
     24 C         143.6350  144.7811  162.9927 C.3     1  UNL1        0.0175
     25 C         142.4472  145.1655  163.8244 C.3     1  UNL1        0.0199
     26 C         141.5429  143.9726  163.9201 C.3     1  UNL1        0.0855
     27 N         142.1716  142.8511  163.1476 N.3     1  UNL1       -0.2971
     28 H         141.5493  142.5581  162.3944 H       1  UNL1        0.1233
     29 C         140.2387  143.9120  164.6587 C.3     1  UNL1        0.1470
     30 O         139.4233  145.1572  164.8444 O.3     1  UNL1       -0.3787
     31 H         139.8787  145.9067  164.4298 H       1  UNL1        0.2108
     32 C         139.7500  142.6061  165.2116 C.ar    1  UNL1        0.0055
     33 C         138.7150  141.8164  164.4664 C.ar    1  UNL1       -0.0019
     34 C         138.2263  140.5105  165.0193 C.ar    1  UNL1       -0.0002
     35 C         138.7724  139.9942  166.3174 C.ar    1  UNL1       -0.0000
     36 C         139.8073  140.7839  167.0627 C.ar    1  UNL1       -0.0002
     37 C         140.2961  142.0898  166.5097 C.ar    1  UNL1       -0.0019
@<TRIPOS>BOND
     1    11    12    1
     2    12    13   ar
     3    13    14   ar
     4    14    15   ar
     5    15    16   ar
     6    15    17    1
     7    17    18    1
     8    18    19    1
     9    19     7    1
    10     7     8    2
    11     7     9   am
    12     9     1    1
    13     1     2   ar
    14     2     3   ar
    15     3     4   ar
    16     4    22    1
    17    23    22    1
    18    23    24    1
    19    24    25    1
    20    26    25    1
    21    26    29    1
    22    29    30    1
    23    29    32    1
    24    32    33   ar
    25    33    34   ar
    26    34    35   ar
    27    35    36   ar
    28    36    37   ar
    29    26    27    1
    30     4     5   ar
    31     5     6   ar
    32    16    12   ar
    33     6     1   ar
    34    19    14    1
    35    27    23    1
    36    37    32   ar
    37    11    20    1
    38    11    21    1
    39     9    10    1
    40    30    31    1
    41    27    28    1
@<TRIPOS>MOLECULE
*****
 37 41 0 0 0
SMALL
GASTEIGER

@<TRIPOS>ATOM
      1 C         143.6848  139.7525  159.2807 C.ar    1  UNL1        0.0503
      2 C         143.6483  141.2219  158.9815 C.ar    1  UNL1        0.0143
      3 C         143.9467  142.2154  160.0650 C.ar    1  UNL1       -0.0029
      4 C         144.2815  141.7396  161.4476 C.ar    1  UNL1       -0.0208
      5 C         144.3179  140.2701  161.7467 C.ar    1  UNL1       -0.0029
      6 C         144.0196  139.2766  160.6632 C.ar    1  UNL1        0.0143
      7 C         142.0203  138.1479  158.0954 C.2     1  UNL1        0.2313
      8 O         140.9525  138.5305  159.0769 O.2     1  UNL1       -0.2744
      9 N         143.3864  138.7589  158.1972 N.am    1  UNL1       -0.2836
     10 H         144.0872  138.5078  157.5530 H       1  UNL1        0.1549
     11 N         144.7831  132.7901  156.3338 N.pl3   1  UNL1       -0.3375
     12 C         143.7558  133.8806  156.2584 C.ar    1  UNL1        0.1560
     13 N         143.6758  135.0801  157.1555 N.ar    1  UNL1       -0.2287
     14 C         142.4988  135.9039  156.7241 C.ar    1  UNL1        0.0712
     15 C         141.8514  135.2135  155.5604 C.ar    1  UNL1        0.0239
     16 S         142.6283  133.9630  155.2726 S.2     1  UNL1       -0.0567
     17 C         140.6744  136.0372  155.1291 C.3     1  UNL1        0.0351
     18 C         140.5944  137.2367  156.0262 C.3     1  UNL1        0.0204
     19 C         141.7219  137.1543  157.0119 C.3     1  UNL1        0.1174
     20 H         145.4882  132.8247  157.0200 H       1  UNL1        0.1442
     21 H         144.7522  132.0398  155.6972 H       1  UNL1        0.1442
     22 C         144.5799  142.7331  162.5310 C.3     1  UNL1        0.0420
     23 C         143.8100  142.6935  163.8178 C.3     1  UNL1        0.0585
     24 C         144.3843  142.4481  165.1815 C.3     1  UNL1        0.0175
     25 C         143.2599  142.4952  166.1733 C.3     1  UNL1        0.0199
     26 C         141.9907  142.7697  165.4225 C.3     1  UNL1        0.0855
     27 N         142.3307  142.8922  163.9666 N.3     1  UNL1       -0.2971
     28 H         142.0699  143.8180  163.6270 H       1  UNL1        0.1233
     29 C         140.6219  142.8989  166.0222 C.3     1  UNL1        0.1470
     30 O         139.5497  143.6492  165.2890 O.3     1  UNL1       -0.3787
     31 H         139.9048  143.9840  164.4508 H       1  UNL1        0.2108
     32 C         140.3254  142.2779  167.3550 C.ar    1  UNL1        0.0055
     33 C         140.4276  143.1006  168.6051 C.ar    1  UNL1       -0.0019
     34 C         140.1310  142.4796  169.9379 C.ar    1  UNL1       -0.0002
     35 C         139.7323  141.0359  170.0207 C.ar    1  UNL1       -0.0000
     36 C         139.6301  140.2133  168.7705 C.ar    1  UNL1       -0.0002
     37 C         139.9266  140.8343  167.4377 C.ar    1  UNL1       -0.0019
@<TRIPOS>BOND
     1    11    12    1
     2    12    13   ar
     3    13    14   ar
     4    14    15   ar
     5    15    16   ar
     6    15    17    1
     7    17    18    1
     8    18    19    1
     9    19     7    1
    10     7     8    2
    11     7     9   am
    12     9     1    1
    13     1     2   ar
    14     2     3   ar
    15     3     4   ar
    16     4    22    1
    17    23    22    1
    18    23    24    1
    19    24    25    1
    20    26    25    1
    21    26    29    1
    22    29    30    1
    23    29    32    1
    24    32    33   ar
    25    33    34   ar
    26    34    35   ar
    27    35    36   ar
    28    36    37   ar
    29    26    27    1
    30     4     5   ar
    31     5     6   ar
    32    16    12   ar
    33     6     1   ar
    34    19    14    1
    35    27    23    1
    36    37    32   ar
    37    11    20    1
    38    11    21    1
    39     9    10    1
    40    30    31    1
    41    27    28    1
@<TRIPOS>MOLECULE
*****
 37 41 0 0 0
SMALL
GASTEIGER

@<TRIPOS>ATOM
      1 C         137.8002  139.6757  160.9474 C.ar    1  UNL1        0.0503
      2 C         137.5863  140.6979  162.0241 C.ar    1  UNL1        0.0143
      3 C         137.9832  140.3921  163.4380 C.ar    1  UNL1       -0.0029
      4 C         138.5941  139.0643  163.7751 C.ar    1  UNL1       -0.0208
      5 C         138.8081  138.0422  162.6984 C.ar    1  UNL1       -0.0029
      6 C         138.4111  138.3479  161.2845 C.ar    1  UNL1        0.0143
      7 C         138.3840  140.6314  158.6031 C.2     1  UNL1        0.2313
      8 O         139.7616  140.9758  159.0865 O.2     1  UNL1       -0.2744
      9 N         137.4033  139.9814  159.5335 N.am    1  UNL1       -0.2836
     10 H         136.4992  139.7554  159.2162 H       1  UNL1        0.1549
     11 N         132.9465  140.1612  155.4959 N.pl3   1  UNL1       -0.3375
     12 C         134.4039  140.4822  155.6479 C.ar    1  UNL1        0.1560
     13 N         135.2150  140.3265  156.9000 N.ar    1  UNL1       -0.2287
     14 C         136.6184  140.7633  156.6005 C.ar    1  UNL1        0.0712
     15 C         136.6746  141.1890  155.1632 C.ar    1  UNL1        0.0239
     16 S         135.3059  141.0153  154.5746 S.2     1  UNL1       -0.0567
     17 C         138.0780  141.6259  154.8637 C.3     1  UNL1        0.0351
     18 C         138.8891  141.4701  156.1158 C.3     1  UNL1        0.0204
     19 C         137.9871  140.9371  157.1892 C.3     1  UNL1        0.1174
     20 H         132.4363  139.8139  156.2629 H       1  UNL1        0.1442
     21 H         132.5002  140.2978  154.6291 H       1  UNL1        0.1442
     22 C         138.9910  138.7586  165.1890 C.3     1  UNL1        0.0420
     23 C         139.8275  139.7354  165.9611 C.3     1  UNL1        0.0585
     24 C         139.5907  140.1739  167.3759 C.3     1  UNL1        0.0175
     25 C         140.6646  141.1547  167.7431 C.3     1  UNL1        0.0199
     26 C         141.5650  141.3225  166.5552 C.3     1  UNL1        0.0855
     27 N         141.0477  140.4453  165.4539 N.3     1  UNL1       -0.2971
     28 H         141.7599  139.7643  165.1903 H       1  UNL1        0.1233
     29 C         142.7711  142.2113  166.4816 C.3     1  UNL1        0.1470
     30 O         143.4838  142.6139  167.7386 O.3     1  UNL1       -0.3787
     31 H         143.0393  142.2167  168.5037 H       1  UNL1        0.2108
     32 C         143.2643  142.6975  165.1511 C.ar    1  UNL1        0.0055
     33 C         142.5060  143.7605  164.4128 C.ar    1  UNL1       -0.0019
     34 C         142.9992  144.2467  163.0823 C.ar    1  UNL1       -0.0002
     35 C         144.2508  143.6700  162.4900 C.ar    1  UNL1       -0.0000
     36 C         145.0092  142.6071  163.2283 C.ar    1  UNL1       -0.0002
     37 C         144.5159  142.1209  164.5588 C.ar    1  UNL1       -0.0019
@<TRIPOS>BOND
     1    11    12    1
     2    12    13   ar
     3    13    14   ar
     4    14    15   ar
     5    15    16   ar
     6    15    17    1
     7    17    18    1
     8    18    19    1
     9    19     7    1
    10     7     8    2
    11     7     9   am
    12     9     1    1
    13     1     2   ar
    14     2     3   ar
    15     3     4   ar
    16     4    22    1
    17    23    22    1
    18    23    24    1
    19    24    25    1
    20    26    25    1
    21    26    29    1
    22    29    30    1
    23    29    32    1
    24    32    33   ar
    25    33    34   ar
    26    34    35   ar
    27    35    36   ar
    28    36    37   ar
    29    26    27    1
    30     4     5   ar
    31     5     6   ar
    32    16    12   ar
    33     6     1   ar
    34    19    14    1
    35    27    23    1
    36    37    32   ar
    37    11    20    1
    38    11    21    1
    39     9    10    1
    40    30    31    1
    41    27    28    1
@<TRIPOS>MOLECULE
*****
 37 41 0 0 0
SMALL
GASTEIGER

@<TRIPOS>ATOM
      1 C         140.5811  138.7849  159.4159 C.ar    1  UNL1        0.0503
      2 C         142.0367  138.4243  159.4463 C.ar    1  UNL1        0.0143
      3 C         142.6484  137.6770  158.2984 C.ar    1  UNL1       -0.0029
      4 C         141.8043  137.2903  157.1203 C.ar    1  UNL1       -0.0208
      5 C         140.3486  137.6508  157.0899 C.ar    1  UNL1       -0.0029
      6 C         139.7370  138.3982  158.2378 C.ar    1  UNL1        0.0143
      7 C         139.8018  138.8583  161.8933 C.2     1  UNL1        0.2313
      8 O         140.2459  137.4372  162.0751 O.2     1  UNL1       -0.2744
      9 N         139.9694  139.5322  160.5637 N.am    1  UNL1       -0.2836
     10 H         139.6779  140.4649  160.4444 H       1  UNL1        0.1549
     11 N         137.6001  144.7094  162.4931 N.pl3   1  UNL1       -0.3375
     12 C         137.9316  143.3248  162.9654 C.ar    1  UNL1        0.1560
     13 N         138.5596  142.2392  162.1426 N.ar    1  UNL1       -0.2287
     14 C         138.7094  141.0262  163.0122 C.ar    1  UNL1        0.0712
     15 C         138.1739  141.3621  164.3725 C.ar    1  UNL1        0.0239
     16 S         137.6932  142.7827  164.3436 S.2     1  UNL1       -0.0567
     17 C         138.3237  140.1491  165.2421 C.3     1  UNL1        0.0351
     18 C         138.9517  139.0636  164.4192 C.3     1  UNL1        0.0204
     19 C         139.1901  139.6056  163.0411 C.3     1  UNL1        0.1174
     20 H         137.7957  144.9728  161.5648 H       1  UNL1        0.1442
     21 H         137.1870  145.3547  163.1112 H       1  UNL1        0.1442
     22 C         142.4160  136.5430  155.9725 C.3     1  UNL1        0.0420
     23 C         142.7166  135.0794  156.1054 C.3     1  UNL1        0.0585
     24 C         141.8603  133.9545  155.6043 C.3     1  UNL1        0.0175
     25 C         142.5407  132.6636  155.9519 C.3     1  UNL1        0.0199
     26 C         143.8175  132.9909  156.6679 C.3     1  UNL1        0.0855
     27 N         143.9262  134.4839  156.7628 N.3     1  UNL1       -0.2971
     28 H         144.7705  134.8005  156.2859 H       1  UNL1        0.1233
     29 C         144.8112  131.9992  157.1963 C.3     1  UNL1        0.1470
     30 O         145.9654  132.4667  158.0323 O.3     1  UNL1       -0.3787
     31 H         145.9211  133.4302  158.1349 H       1  UNL1        0.2108
     32 C         144.6505  130.5399  156.8885 C.ar    1  UNL1        0.0055
     33 C         144.9726  130.0225  155.5179 C.ar    1  UNL1       -0.0019
     34 C         144.8119  128.5632  155.2102 C.ar    1  UNL1       -0.0002
     35 C         144.3291  127.6213  156.2730 C.ar    1  UNL1       -0.0000
     36 C         144.0070  128.1387  157.6436 C.ar    1  UNL1       -0.0002
     37 C         144.1677  129.5979  157.9514 C.ar    1  UNL1       -0.0019
@<TRIPOS>BOND
     1    11    12    1
     2    12    13   ar
     3    13    14   ar
     4    14    15   ar
     5    15    16   ar
     6    15    17    1
     7    17    18    1
     8    18    19    1
     9    19     7    1
    10     7     8    2
    11     7     9   am
    12     9     1    1
    13     1     2   ar
    14     2     3   ar
    15     3     4   ar
    16     4    22    1
    17    23    22    1
    18    23    24    1
    19    24    25    1
    20    26    25    1
    21    26    29    1
    22    29    30    1
    23    29    32    1
    24    32    33   ar
    25    33    34   ar
    26    34    35   ar
    27    35    36   ar
    28    36    37   ar
    29    26    27    1
    30     4     5   ar
    31     5     6   ar
    32    16    12   ar
    33     6     1   ar
    34    19    14    1
    35    27    23    1
    36    37    32   ar
    37    11    20    1
    38    11    21    1
    39     9    10    1
    40    30    31    1
    41    27    28    1
@<TRIPOS>MOLECULE
*****
 37 41 0 0 0
SMALL
GASTEIGER

@<TRIPOS>ATOM
      1 C         141.2525  139.9784  163.5659 C.ar    1  UNL1        0.0503
      2 C         142.6816  139.8242  163.1372 C.ar    1  UNL1        0.0143
      3 C         143.0461  139.9400  161.6867 C.ar    1  UNL1       -0.0029
      4 C         141.9816  140.2099  160.6650 C.ar    1  UNL1       -0.0208
      5 C         140.5525  140.3640  161.0937 C.ar    1  UNL1       -0.0029
      6 C         140.1880  140.2483  162.5442 C.ar    1  UNL1        0.0143
      7 C         140.9879  141.0611  165.9127 C.2     1  UNL1        0.2313
      8 O         141.4524  142.3754  165.3587 O.2     1  UNL1       -0.2744
      9 N         140.8879  139.8626  165.0163 N.am    1  UNL1       -0.2836
     10 H         140.5831  139.0000  165.3799 H       1  UNL1        0.1549
     11 N         143.2321  143.7776  171.1114 N.pl3   1  UNL1       -0.3375
     12 C         142.3276  142.8694  170.3322 C.ar    1  UNL1        0.1560
     13 N         142.3438  142.6728  168.8452 N.ar    1  UNL1       -0.2287
     14 C         141.2743  141.6803  168.4972 C.ar    1  UNL1        0.0712
     15 C         140.5971  141.2635  169.7691 C.ar    1  UNL1        0.0239
     16 S         141.2481  141.9985  170.9031 S.2     1  UNL1       -0.0567
     17 C         139.5276  140.2710  169.4210 C.3     1  UNL1        0.0351
     18 C         139.5438  140.0744  167.9341 C.3     1  UNL1        0.0204
     19 C         140.6233  140.9454  167.3631 C.3     1  UNL1        0.1174
     20 H         143.9139  144.3125  170.6441 H       1  UNL1        0.1442
     21 H         143.1440  143.8387  172.0900 H       1  UNL1        0.1442
     22 C         142.3462  140.3256  159.2146 C.3     1  UNL1        0.0420
     23 C         142.2531  139.1254  158.3198 C.3     1  UNL1        0.0585
     24 C         140.9910  138.4228  157.9155 C.3     1  UNL1        0.0175
     25 C         141.3638  137.2801  157.0180 C.3     1  UNL1        0.0199
     26 C         142.8562  137.2766  156.8676 C.3     1  UNL1        0.0855
     27 N         143.4059  138.4170  157.6721 N.3     1  UNL1       -0.2971
     28 H         143.9087  139.0608  157.0613 H       1  UNL1        0.1233
     29 C         143.6581  136.3035  156.0552 C.3     1  UNL1        0.1470
     30 O         144.9303  136.7465  155.3954 O.3     1  UNL1       -0.3787
     31 H         145.0877  137.6831  155.5928 H       1  UNL1        0.2108
     32 C         143.1879  134.8873  155.9027 C.ar    1  UNL1        0.0055
     33 C         143.4259  133.8954  157.0025 C.ar    1  UNL1       -0.0019
     34 C         142.9557  132.4792  156.8500 C.ar    1  UNL1       -0.0002
     35 C         142.2475  132.0548  155.5977 C.ar    1  UNL1       -0.0000
     36 C         142.0094  133.0467  154.4979 C.ar    1  UNL1       -0.0002
     37 C         142.4796  134.4629  154.6504 C.ar    1  UNL1       -0.0019
@<TRIPOS>BOND
     1    11    12    1
     2    12    13   ar
     3    13    14   ar
     4    14    15   ar
     5    15    16   ar
     6    15    17    1
     7    17    18    1
     8    18    19    1
     9    19     7    1
    10     7     8    2
    11     7     9   am
    12     9     1    1
    13     1     2   ar
    14     2     3   ar
    15     3     4   ar
    16     4    22    1
    17    23    22    1
    18    23    24    1
    19    24    25    1
    20    26    25    1
    21    26    29    1
    22    29    30    1
    23    29    32    1
    24    32    33   ar
    25    33    34   ar
    26    34    35   ar
    27    35    36   ar
    28    36    37   ar
    29    26    27    1
    30     4     5   ar
    31     5     6   ar
    32    16    12   ar
    33     6     1   ar
    34    19    14    1
    35    27    23    1
    36    37    32   ar
    37    11    20    1
    38    11    21    1
    39     9    10    1
    40    30    31    1
    41    27    28    1
@<TRIPOS>MOLECULE
*****
 37 41 0 0 0
SMALL
GASTEIGER

@<TRIPOS>ATOM
      1 C         141.8533  143.9821  159.8930 C.ar    1  UNL1        0.0503
      2 C         141.5641  144.5868  161.2349 C.ar    1  UNL1        0.0143
      3 C         142.4790  144.3159  162.3924 C.ar    1  UNL1       -0.0029
      4 C         143.6830  143.4405  162.2079 C.ar    1  UNL1       -0.0208
      5 C         143.9721  142.8358  160.8660 C.ar    1  UNL1       -0.0029
      6 C         143.0572  143.1067  159.7086 C.ar    1  UNL1        0.0143
      7 C         141.2623  145.3489  157.7640 C.2     1  UNL1        0.2313
      8 O         142.5011  146.1741  157.9499 O.2     1  UNL1       -0.2744
      9 N         140.9384  144.2529  158.7355 N.am    1  UNL1       -0.2836
     10 H         140.1254  143.7113  158.6135 H       1  UNL1        0.1549
     11 N         136.0635  142.5127  155.6736 N.pl3   1  UNL1       -0.3375
     12 C         137.1499  143.5468  155.6576 C.ar    1  UNL1        0.1560
     13 N         138.2811  143.6525  156.6370 N.ar    1  UNL1       -0.2287
     14 C         139.1261  144.8279  156.2441 C.ar    1  UNL1        0.0712
     15 C         138.5172  145.4487  155.0218 C.ar    1  UNL1        0.0239
     16 S         137.2958  144.6569  154.6594 S.2     1  UNL1       -0.0567
     17 C         139.3623  146.6240  154.6289 C.3     1  UNL1        0.0351
     18 C         140.4934  146.7297  155.6083 C.3     1  UNL1        0.0204
     19 C         140.3475  145.6197  156.6065 C.3     1  UNL1        0.1174
     20 H         136.0531  141.8204  156.3736 H       1  UNL1        0.1442
     21 H         135.3609  142.5261  154.9841 H       1  UNL1        0.1442
     22 C         144.5978  143.1697  163.3654 C.3     1  UNL1        0.0420
     23 C         144.0492  142.5899  164.6354 C.3     1  UNL1        0.0585
     24 C         143.9939  143.2782  165.9670 C.3     1  UNL1        0.0175
     25 C         143.3700  142.3337  166.9513 C.3     1  UNL1        0.0199
     26 C         143.0397  141.0618  166.2280 C.3     1  UNL1        0.0855
     27 N         143.4594  141.2202  164.7967 N.3     1  UNL1       -0.2971
     28 H         142.6495  141.1178  164.1851 H       1  UNL1        0.1233
     29 C         142.4016  139.8453  166.8303 C.3     1  UNL1        0.1470
     30 O         142.9790  139.2323  168.0717 O.3     1  UNL1       -0.3787
     31 H         143.7559  139.7408  168.3521 H       1  UNL1        0.2108
     32 C         141.1862  139.2417  166.1913 C.ar    1  UNL1        0.0055
     33 C         141.3395  138.1952  165.1277 C.ar    1  UNL1       -0.0019
     34 C         140.1240  137.5916  164.4887 C.ar    1  UNL1       -0.0002
     35 C         138.7552  138.0344  164.9133 C.ar    1  UNL1       -0.0000
     36 C         138.6019  139.0809  165.9769 C.ar    1  UNL1       -0.0002
     37 C         139.8174  139.6845  166.6159 C.ar    1  UNL1       -0.0019
@<TRIPOS>BOND
     1    11    12    1
     2    12    13   ar
     3    13    14   ar
     4    14    15   ar
     5    15    16   ar
     6    15    17    1
     7    17    18    1
     8    18    19    1
     9    19     7    1
    10     7     8    2
    11     7     9   am
    12     9     1    1
    13     1     2   ar
    14     2     3   ar
    15     3     4   ar
    16     4    22    1
    17    23    22    1
    18    23    24    1
    19    24    25    1
    20    26    25    1
    21    26    29    1
    22    29    30    1
    23    29    32    1
    24    32    33   ar
    25    33    34   ar
    26    34    35   ar
    27    35    36   ar
    28    36    37   ar
    29    26    27    1
    30     4     5   ar
    31     5     6   ar
    32    16    12   ar
    33     6     1   ar
    34    19    14    1
    35    27    23    1
    36    37    32   ar
    37    11    20    1
    38    11    21    1
    39     9    10    1
    40    30    31    1
    41    27    28    1
