@<TRIPOS>MOLECULE
*****
 38 41 0 0 0
SMALL
GASTEIGER

@<TRIPOS>ATOM
      1 C         138.9547  139.7681  159.9778 C.3     1  UNL1        0.1287
      2 C         138.6071  140.3365  161.3216 C.ar    1  UNL1        0.1351
      3 N         137.3988  141.1653  161.6427 N.ar    1  UNL1       -0.2279
      4 C         137.4517  141.5170  163.0999 C.ar    1  UNL1        0.1171
      5 C         138.6927  140.9055  163.6795 C.ar    1  UNL1        0.0769
      6 N         139.4068  140.1760  162.5805 N.ar    1  UNL1       -0.3394
      7 H         140.2520  139.6790  162.6697 H       1  UNL1        0.1671
      8 C         139.1410  141.0060  165.1075 C.ar    1  UNL1        0.0172
      9 C         138.8829  139.8731  166.0561 C.ar    1  UNL1        0.0015
     10 C         139.3312  139.9736  167.4840 C.ar    1  UNL1        0.0015
     11 C         140.0376  141.2070  167.9632 C.ar    1  UNL1        0.0171
     12 C         140.2957  142.3399  167.0147 C.ar    1  UNL1        0.0015
     13 C         139.8474  142.2394  165.5868 C.ar    1  UNL1        0.0015
     14 C         140.4859  141.3075  169.3912 C.ar    1  UNL1        0.0754
     15 C         141.7166  140.6794  169.9752 C.ar    1  UNL1        0.0409
     16 C         141.7735  141.0373  171.4308 C.ar    1  UNL1        0.1214
     17 N         140.5780  141.8867  171.7463 N.ar    1  UNL1       -0.1711
     18 N         139.7823  142.0536  170.4858 N.ar    1  UNL1       -0.2757
     19 H         138.9452  142.5634  170.3932 H       1  UNL1        0.1889
     20 N         138.0888  140.0674  158.7901 N.am    1  UNL1       -0.2956
     21 C         138.0868  141.4426  158.1910 C.2     1  UNL1        0.2537
     22 O         138.9507  142.5183  158.7795 O.2     1  UNL1       -0.2695
     23 H         137.5218  139.3614  158.4039 H       1  UNL1        0.1501
     24 C         137.2209  141.7419  157.0033 C.ar    1  UNL1        0.1033
     25 C         136.1070  140.8813  156.4849 C.ar    1  UNL1        0.1105
     26 N         135.5145  141.5619  155.2867 N.ar    1  UNL1       -0.2346
     27 C         136.2621  142.8432  155.0646 C.ar    1  UNL1        0.1347
     28 S         137.3168  142.9545  156.1255 S.2     1  UNL1       -0.0599
     29 C         140.1682  138.9003  159.8215 C.3     1  UNL1        0.0273
     30 C         141.4761  139.5073  159.4078 C.3     1  UNL1        0.0022
     31 C         142.6926  138.6416  159.2640 C.3     1  UNL1        0.0006
     32 C         142.9775  137.5740  160.2784 C.3     1  UNL1        0.0096
     33 C         143.4746  137.9494  161.6429 C.3     1  UNL1        0.0850
     34 C         140.6226  137.2630  164.3158 C.3     1  UNL1        0.1107
     35 N         141.5967  137.0481  163.1956 N.am    1  UNL1       -0.3027
     36 C         142.5005  138.1643  162.7631 C.2     1  UNL1        0.2225
     37 O         142.4302  139.4955  163.4508 O.2     1  UNL1       -0.2751
     38 H         141.6429  136.1744  162.7443 H       1  UNL1        0.1495
@<TRIPOS>BOND
     1    34    35    1
     2    35    36   am
     3    36    37    2
     4    36    33    1
     5    33    32    1
     6    32    31    1
     7    31    30    1
     8    30    29    1
     9     1    29    1
    10     1    20    1
    11    20    21   am
    12    21    22    2
    13    21    24    1
    14    24    25   ar
    15    25    26   ar
    16    26    27   ar
    17    27    28   ar
    18     1     2    1
    19     2     3   ar
    20     3     4   ar
    21     4     5   ar
    22     5     8    1
    23     8     9   ar
    24     9    10   ar
    25    10    11   ar
    26    11    14    1
    27    14    15   ar
    28    15    16   ar
    29    16    17   ar
    30    17    18   ar
    31    11    12   ar
    32    12    13   ar
    33     5     6   ar
    34    28    24   ar
    35     6     2   ar
    36    13     8   ar
    37    18    14   ar
    38    35    38    1
    39    20    23    1
    40    18    19    1
    41     6     7    1
@<TRIPOS>MOLECULE
*****
 38 41 0 0 0
SMALL
GASTEIGER

@<TRIPOS>ATOM
      1 C         139.7959  141.0175  165.0464 C.3     1  UNL1        0.1287
      2 C         140.4537  141.4876  163.7829 C.ar    1  UNL1        0.1351
      3 N         141.8259  141.1091  163.3097 N.ar    1  UNL1       -0.2279
      4 C         142.0751  141.8063  162.0052 C.ar    1  UNL1        0.1171
      5 C         140.8570  142.6157  161.6721 C.ar    1  UNL1        0.0769
      6 N         139.8549  142.4187  162.7708 N.ar    1  UNL1       -0.3394
      7 H         138.9611  142.8286  162.8191 H       1  UNL1        0.1671
      8 C         140.6731  143.4718  160.4541 C.ar    1  UNL1        0.0172
      9 C         139.8009  142.9984  159.3294 C.ar    1  UNL1        0.0015
     10 C         139.6171  143.8545  158.1115 C.ar    1  UNL1        0.0015
     11 C         140.3055  145.1840  158.0184 C.ar    1  UNL1        0.0171
     12 C         141.1777  145.6573  159.1431 C.ar    1  UNL1        0.0015
     13 C         141.3615  144.8012  160.3610 C.ar    1  UNL1        0.0015
     14 C         140.1216  146.0401  156.8004 C.ar    1  UNL1        0.0754
     15 C         140.6384  145.7389  155.4248 C.ar    1  UNL1        0.0409
     16 C         140.2249  146.8602  154.5185 C.ar    1  UNL1        0.1214
     17 N         139.4526  147.8545  155.3339 N.ar    1  UNL1       -0.1711
     18 N         139.3887  147.3476  156.7442 N.ar    1  UNL1       -0.2757
     19 H         138.9439  147.7946  157.5002 H       1  UNL1        0.1889
     20 N         140.4885  141.1983  166.3646 N.am    1  UNL1       -0.2956
     21 C         140.5000  142.5438  167.0274 C.2     1  UNL1        0.2537
     22 O         139.8190  143.7086  166.3720 O.2     1  UNL1       -0.2695
     23 H         140.9354  140.4338  166.7947 H       1  UNL1        0.1501
     24 C         141.1925  142.7245  168.3456 C.ar    1  UNL1        0.1033
     25 C         140.6182  143.3939  169.5589 C.ar    1  UNL1        0.1105
     26 N         141.6518  143.3507  170.6451 N.ar    1  UNL1       -0.2346
     27 C         142.8649  142.6546  170.1032 C.ar    1  UNL1        0.1347
     28 S         142.5811  142.2676  168.6819 S.2     1  UNL1       -0.0599
     29 C         138.4455  140.3667  164.9916 C.3     1  UNL1        0.0273
     30 C         138.0660  139.3394  166.0165 C.3     1  UNL1        0.0022
     31 C         138.4575  137.9046  165.8209 C.3     1  UNL1        0.0006
     32 C         139.1879  137.4891  164.5784 C.3     1  UNL1        0.0096
     33 C         140.6872  137.4431  164.5697 C.3     1  UNL1        0.0850
     34 C         143.6051  138.2966  162.0189 C.3     1  UNL1        0.1107
     35 N         142.8564  138.1103  163.3053 N.am    1  UNL1       -0.3027
     36 C         141.4358  137.6294  163.2834 C.2     1  UNL1        0.2225
     37 O         140.7638  137.3349  161.9751 O.2     1  UNL1       -0.2751
     38 H         143.2975  138.3036  164.1640 H       1  UNL1        0.1495
@<TRIPOS>BOND
     1    34    35    1
     2    35    36   am
     3    36    37    2
     4    36    33    1
     5    33    32    1
     6    32    31    1
     7    31    30    1
     8    30    29    1
     9     1    29    1
    10     1    20    1
    11    20    21   am
    12    21    22    2
    13    21    24    1
    14    24    25   ar
    15    25    26   ar
    16    26    27   ar
    17    27    28   ar
    18     1     2    1
    19     2     3   ar
    20     3     4   ar
    21     4     5   ar
    22     5     8    1
    23     8     9   ar
    24     9    10   ar
    25    10    11   ar
    26    11    14    1
    27    14    15   ar
    28    15    16   ar
    29    16    17   ar
    30    17    18   ar
    31    11    12   ar
    32    12    13   ar
    33     5     6   ar
    34    28    24   ar
    35     6     2   ar
    36    13     8   ar
    37    18    14   ar
    38    35    38    1
    39    20    23    1
    40    18    19    1
    41     6     7    1
@<TRIPOS>MOLECULE
*****
 38 41 0 0 0
SMALL
GASTEIGER

@<TRIPOS>ATOM
      1 C         138.7504  142.0556  160.0116 C.3     1  UNL1        0.1287
      2 C         138.6638  142.4945  161.4434 C.ar    1  UNL1        0.1351
      3 N         137.9166  143.6902  161.9554 N.ar    1  UNL1       -0.2279
      4 C         138.1002  143.7495  163.4429 C.ar    1  UNL1        0.1171
      5 C         138.9608  142.5905  163.8503 C.ar    1  UNL1        0.0769
      6 N         139.3092  141.8149  162.6145 N.ar    1  UNL1       -0.3394
      7 H         139.8640  141.0024  162.5784 H       1  UNL1        0.1671
      8 C         139.3967  142.2643  165.2481 C.ar    1  UNL1        0.0172
      9 C         139.2062  140.8783  165.7889 C.ar    1  UNL1        0.0015
     10 C         139.6421  140.5522  167.1866 C.ar    1  UNL1        0.0015
     11 C         140.2684  141.6121  168.0435 C.ar    1  UNL1        0.0171
     12 C         140.4588  142.9982  167.5027 C.ar    1  UNL1        0.0015
     13 C         140.0230  143.3243  166.1050 C.ar    1  UNL1        0.0015
     14 C         140.7042  141.2860  169.4413 C.ar    1  UNL1        0.0754
     15 C         142.1177  141.0769  169.8979 C.ar    1  UNL1        0.0409
     16 C         142.0902  140.7734  171.3666 C.ar    1  UNL1        0.1214
     17 N         140.6597  140.7948  171.8177 N.ar    1  UNL1       -0.1711
     18 N         139.8032  141.1116  170.6277 N.ar    1  UNL1       -0.2757
     19 H         138.8219  141.1911  170.6258 H       1  UNL1        0.1889
     20 N         138.6489  143.0679  158.9094 N.am    1  UNL1       -0.2956
     21 C         139.8896  143.7134  158.3674 C.2     1  UNL1        0.2537
     22 O         141.2319  143.3467  158.9276 O.2     1  UNL1       -0.2695
     23 H         137.7679  143.3086  158.5418 H       1  UNL1        0.1501
     24 C         139.7881  144.7257  157.2652 C.ar    1  UNL1        0.1033
     25 C         140.2382  146.1549  157.3364 C.ar    1  UNL1        0.1105
     26 N         139.9469  146.7990  156.0134 N.ar    1  UNL1       -0.2346
     27 C         139.3167  145.7680  155.1246 C.ar    1  UNL1        0.1347
     28 S         139.2186  144.4866  155.8982 S.2     1  UNL1       -0.0599
     29 C         138.9385  140.6044  159.6822 C.3     1  UNL1        0.0273
     30 C         137.8380  139.6235  159.9594 C.3     1  UNL1        0.0022
     31 C         137.7099  139.0049  161.3199 C.3     1  UNL1        0.0006
     32 C         138.6709  137.9372  161.7518 C.3     1  UNL1        0.0096
     33 C         139.5504  138.1585  162.9466 C.3     1  UNL1        0.0850
     34 C         143.3784  137.9755  161.9161 C.3     1  UNL1        0.1107
     35 N         141.9411  137.5896  162.1039 N.am    1  UNL1       -0.3027
     36 C         140.9876  138.5444  162.7588 C.2     1  UNL1        0.2225
     37 O         141.4714  139.8852  163.2259 O.2     1  UNL1       -0.2751
     38 H         141.6236  136.7095  161.7974 H       1  UNL1        0.1495
@<TRIPOS>BOND
     1    34    35    1
     2    35    36   am
     3    36    37    2
     4    36    33    1
     5    33    32    1
     6    32    31    1
     7    31    30    1
     8    30    29    1
     9     1    29    1
    10     1    20    1
    11    20    21   am
    12    21    22    2
    13    21    24    1
    14    24    25   ar
    15    25    26   ar
    16    26    27   ar
    17    27    28   ar
    18     1     2    1
    19     2     3   ar
    20     3     4   ar
    21     4     5   ar
    22     5     8    1
    23     8     9   ar
    24     9    10   ar
    25    10    11   ar
    26    11    14    1
    27    14    15   ar
    28    15    16   ar
    29    16    17   ar
    30    17    18   ar
    31    11    12   ar
    32    12    13   ar
    33     5     6   ar
    34    28    24   ar
    35     6     2   ar
    36    13     8   ar
    37    18    14   ar
    38    35    38    1
    39    20    23    1
    40    18    19    1
    41     6     7    1
@<TRIPOS>MOLECULE
*****
 38 41 0 0 0
SMALL
GASTEIGER

@<TRIPOS>ATOM
      1 C         139.0472  140.2333  165.6963 C.3     1  UNL1        0.1287
      2 C         138.7702  141.3297  164.7109 C.ar    1  UNL1        0.1351
      3 N         137.7888  142.4498  164.8910 N.ar    1  UNL1       -0.2279
      4 C         137.8379  143.3110  163.6638 C.ar    1  UNL1        0.1171
      5 C         138.8496  142.7231  162.7253 C.ar    1  UNL1        0.0769
      6 N         139.4257  141.4987  163.3724 N.ar    1  UNL1       -0.3394
      7 H         140.1135  140.9094  162.9864 H       1  UNL1        0.1671
      8 C         139.2201  143.2647  161.3763 C.ar    1  UNL1        0.0172
      9 C         140.0043  144.5388  161.2692 C.ar    1  UNL1        0.0015
     10 C         140.3748  145.0803  159.9204 C.ar    1  UNL1        0.0015
     11 C         139.9611  144.3476  158.6786 C.ar    1  UNL1        0.0171
     12 C         139.1769  143.0734  158.7857 C.ar    1  UNL1        0.0015
     13 C         138.8064  142.5320  160.1345 C.ar    1  UNL1        0.0015
     14 C         140.3316  144.8891  157.3296 C.ar    1  UNL1        0.0754
     15 C         140.3312  144.1215  156.0409 C.ar    1  UNL1        0.0409
     16 C         140.7669  145.0512  154.9474 C.ar    1  UNL1        0.1214
     17 N         141.0366  146.3935  155.5604 N.ar    1  UNL1       -0.1711
     18 N         140.7676  146.2933  157.0326 N.ar    1  UNL1       -0.2757
     19 H         140.8609  147.0213  157.6888 H       1  UNL1        0.1889
     20 N         140.0557  140.4423  166.7869 N.am    1  UNL1       -0.2956
     21 C         139.7349  140.0323  168.1936 C.2     1  UNL1        0.2537
     22 O         138.4056  139.4134  168.5098 O.2     1  UNL1       -0.2695
     23 H         140.9281  140.8485  166.5793 H       1  UNL1        0.1501
     24 C         140.7433  140.2413  169.2842 C.ar    1  UNL1        0.1033
     25 C         140.5110  140.9766  170.5708 C.ar    1  UNL1        0.1105
     26 N         141.7853  140.9414  171.3613 N.ar    1  UNL1       -0.2346
     27 C         142.8052  140.1843  170.5633 C.ar    1  UNL1        0.1347
     28 S         142.1612  139.7516  169.2795 S.2     1  UNL1       -0.0599
     29 C         138.3159  138.9279  165.5911 C.3     1  UNL1        0.0273
     30 C         139.0135  137.7196  165.0404 C.3     1  UNL1        0.0022
     31 C         140.1925  137.8851  164.1279 C.3     1  UNL1        0.0006
     32 C         141.5394  137.3710  164.5421 C.3     1  UNL1        0.0096
     33 C         142.4391  138.2218  165.3886 C.3     1  UNL1        0.0850
     34 C         145.2147  140.5916  163.8301 C.3     1  UNL1        0.1107
     35 N         144.5523  139.3823  164.4206 N.am    1  UNL1       -0.3027
     36 C         143.1015  139.4311  164.7982 C.2     1  UNL1        0.2225
     37 O         142.3131  140.6893  164.5853 O.2     1  UNL1       -0.2751
     38 H         145.0698  138.5565  164.5603 H       1  UNL1        0.1495
@<TRIPOS>BOND
     1    34    35    1
     2    35    36   am
     3    36    37    2
     4    36    33    1
     5    33    32    1
     6    32    31    1
     7    31    30    1
     8    30    29    1
     9     1    29    1
    10     1    20    1
    11    20    21   am
    12    21    22    2
    13    21    24    1
    14    24    25   ar
    15    25    26   ar
    16    26    27   ar
    17    27    28   ar
    18     1     2    1
    19     2     3   ar
    20     3     4   ar
    21     4     5   ar
    22     5     8    1
    23     8     9   ar
    24     9    10   ar
    25    10    11   ar
    26    11    14    1
    27    14    15   ar
    28    15    16   ar
    29    16    17   ar
    30    17    18   ar
    31    11    12   ar
    32    12    13   ar
    33     5     6   ar
    34    28    24   ar
    35     6     2   ar
    36    13     8   ar
    37    18    14   ar
    38    35    38    1
    39    20    23    1
    40    18    19    1
    41     6     7    1
@<TRIPOS>MOLECULE
*****
 38 41 0 0 0
SMALL
GASTEIGER

@<TRIPOS>ATOM
      1 C         141.8702  143.0642  159.8389 C.3     1  UNL1        0.1287
      2 C         142.3807  143.1914  161.2436 C.ar    1  UNL1        0.1351
      3 N         143.6915  143.7943  161.6541 N.ar    1  UNL1       -0.2279
      4 C         143.7910  143.7136  163.1486 C.ar    1  UNL1        0.1171
      5 C         142.5418  143.0607  163.6618 C.ar    1  UNL1        0.0769
      6 N         141.6702  142.7380  162.4844 N.ar    1  UNL1       -0.3394
      7 H         140.7869  142.3047  162.5198 H       1  UNL1        0.1671
      8 C         142.2205  142.7799  165.0998 C.ar    1  UNL1        0.0172
      9 C         140.8024  142.8627  165.5815 C.ar    1  UNL1        0.0015
     10 C         140.4812  142.5819  167.0195 C.ar    1  UNL1        0.0015
     11 C         141.5781  142.2183  167.9758 C.ar    1  UNL1        0.0171
     12 C         142.9962  142.1355  167.4942 C.ar    1  UNL1        0.0015
     13 C         143.3174  142.4163  166.0562 C.ar    1  UNL1        0.0015
     14 C         141.2568  141.9374  169.4139 C.ar    1  UNL1        0.0754
     15 C         141.0522  140.5821  170.0232 C.ar    1  UNL1        0.0409
     16 C         140.7527  140.7696  171.4810 C.ar    1  UNL1        0.1214
     17 N         140.7722  142.2409  171.7726 N.ar    1  UNL1       -0.1711
     18 N         141.0838  142.9626  170.4952 N.ar    1  UNL1       -0.2757
     19 H         141.1611  143.9379  170.3856 H       1  UNL1        0.1889
     20 N         142.1095  141.8014  159.0654 N.am    1  UNL1       -0.2956
     21 C         141.2613  140.5916  159.3238 C.2     1  UNL1        0.2537
     22 O         140.1738  140.6445  160.3555 O.2     1  UNL1       -0.2695
     23 H         142.8233  141.7667  158.3882 H       1  UNL1        0.1501
     24 C         141.5006  139.3289  158.5503 C.ar    1  UNL1        0.1033
     25 C         140.4663  138.5486  157.7944 C.ar    1  UNL1        0.1105
     26 N         141.1427  137.3622  157.1739 N.ar    1  UNL1       -0.2346
     27 C         142.5950  137.4092  157.5463 C.ar    1  UNL1        0.1347
     28 S         142.8162  138.6248  158.3970 S.2     1  UNL1       -0.0599
     29 C         141.1204  144.1997  159.2076 C.3     1  UNL1        0.0273
     30 C         141.0344  145.5232  159.9083 C.3     1  UNL1        0.0022
     31 C         139.8284  145.8570  160.7354 C.3     1  UNL1        0.0006
     32 C         139.8112  145.5352  162.2004 C.3     1  UNL1        0.0096
     33 C         138.5949  144.9101  162.8168 C.3     1  UNL1        0.0850
     34 C         137.4639  141.1136  163.0551 C.3     1  UNL1        0.1107
     35 N         137.8838  142.4955  163.4600 N.am    1  UNL1       -0.3027
     36 C         138.1750  143.5282  162.4119 C.2     1  UNL1        0.2225
     37 O         138.0462  143.1790  160.9588 O.2     1  UNL1       -0.2751
     38 H         137.9683  142.7247  164.4137 H       1  UNL1        0.1495
@<TRIPOS>BOND
     1    34    35    1
     2    35    36   am
     3    36    37    2
     4    36    33    1
     5    33    32    1
     6    32    31    1
     7    31    30    1
     8    30    29    1
     9     1    29    1
    10     1    20    1
    11    20    21   am
    12    21    22    2
    13    21    24    1
    14    24    25   ar
    15    25    26   ar
    16    26    27   ar
    17    27    28   ar
    18     1     2    1
    19     2     3   ar
    20     3     4   ar
    21     4     5   ar
    22     5     8    1
    23     8     9   ar
    24     9    10   ar
    25    10    11   ar
    26    11    14    1
    27    14    15   ar
    28    15    16   ar
    29    16    17   ar
    30    17    18   ar
    31    11    12   ar
    32    12    13   ar
    33     5     6   ar
    34    28    24   ar
    35     6     2   ar
    36    13     8   ar
    37    18    14   ar
    38    35    38    1
    39    20    23    1
    40    18    19    1
    41     6     7    1
@<TRIPOS>MOLECULE
*****
 38 41 0 0 0
SMALL
GASTEIGER

@<TRIPOS>ATOM
      1 C         139.5981  142.2118  159.2256 C.3     1  UNL1        0.1287
      2 C         139.0814  142.2796  160.6322 C.ar    1  UNL1        0.1351
      3 N         137.8391  142.9900  161.0818 N.ar    1  UNL1       -0.2279
      4 C         137.7062  142.7985  162.5636 C.ar    1  UNL1        0.1171
      5 C         138.8663  141.9697  163.0297 C.ar    1  UNL1        0.0769
      6 N         139.7162  141.6491  161.8361 N.ar    1  UNL1       -0.3394
      7 H         140.5452  141.1180  161.8418 H       1  UNL1        0.1671
      8 C         139.1302  141.5375  164.4417 C.ar    1  UNL1        0.0172
      9 C         139.9541  142.4022  165.3492 C.ar    1  UNL1        0.0015
     10 C         140.2180  141.9699  166.7611 C.ar    1  UNL1        0.0015
     11 C         139.6580  140.6730  167.2655 C.ar    1  UNL1        0.0171
     12 C         138.8341  139.8083  166.3580 C.ar    1  UNL1        0.0015
     13 C         138.5702  140.2406  164.9461 C.ar    1  UNL1        0.0015
     14 C         139.9220  140.2408  168.6775 C.ar    1  UNL1        0.0754
     15 C         141.2661  139.9366  169.2698 C.ar    1  UNL1        0.0409
     16 C         141.0630  139.5447  170.7033 C.ar    1  UNL1        0.1214
     17 N         139.5933  139.6066  170.9970 N.ar    1  UNL1       -0.1711
     18 N         138.8882  140.0368  169.7450 N.ar    1  UNL1       -0.2757
     19 H         137.9172  140.1631  169.6419 H       1  UNL1        0.1889
     20 N         138.6652  142.4349  158.0724 N.am    1  UNL1       -0.2956
     21 C         137.7659  141.3269  157.6100 C.2     1  UNL1        0.2537
     22 O         137.7996  139.9959  158.3009 O.2     1  UNL1       -0.2695
     23 H         138.6431  143.3084  157.6190 H       1  UNL1        0.1501
     24 C         136.8330  141.5500  156.4568 C.ar    1  UNL1        0.1033
     25 C         137.0115  142.5583  155.3607 C.ar    1  UNL1        0.1105
     26 N         135.8466  142.4354  154.4237 N.ar    1  UNL1       -0.2346
     27 C         134.9482  141.3511  154.9406 C.ar    1  UNL1        0.1347
     28 S         135.5579  140.8039  156.1972 S.2     1  UNL1       -0.0599
     29 C         141.0476  141.9208  158.9723 C.3     1  UNL1        0.0273
     30 C         141.5185  140.5014  158.8559 C.3     1  UNL1        0.0022
     31 C         142.9065  140.1337  159.2896 C.3     1  UNL1        0.0006
     32 C         143.1442  138.8570  160.0403 C.3     1  UNL1        0.0096
     33 C         141.9897  138.1215  160.6537 C.3     1  UNL1        0.0850
     34 C         141.1184  137.2400  164.4237 C.3     1  UNL1        0.1107
     35 N         141.4207  137.0773  162.9635 N.am    1  UNL1       -0.3027
     36 C         141.6874  138.2842  162.1138 C.2     1  UNL1        0.2225
     37 O         141.6519  139.6539  162.7243 O.2     1  UNL1       -0.2751
     38 H         141.4440  136.1783  162.5628 H       1  UNL1        0.1495
@<TRIPOS>BOND
     1    34    35    1
     2    35    36   am
     3    36    37    2
     4    36    33    1
     5    33    32    1
     6    32    31    1
     7    31    30    1
     8    30    29    1
     9     1    29    1
    10     1    20    1
    11    20    21   am
    12    21    22    2
    13    21    24    1
    14    24    25   ar
    15    25    26   ar
    16    26    27   ar
    17    27    28   ar
    18     1     2    1
    19     2     3   ar
    20     3     4   ar
    21     4     5   ar
    22     5     8    1
    23     8     9   ar
    24     9    10   ar
    25    10    11   ar
    26    11    14    1
    27    14    15   ar
    28    15    16   ar
    29    16    17   ar
    30    17    18   ar
    31    11    12   ar
    32    12    13   ar
    33     5     6   ar
    34    28    24   ar
    35     6     2   ar
    36    13     8   ar
    37    18    14   ar
    38    35    38    1
    39    20    23    1
    40    18    19    1
    41     6     7    1
@<TRIPOS>MOLECULE
*****
 38 41 0 0 0
SMALL
GASTEIGER

@<TRIPOS>ATOM
      1 C         138.9637  141.4544  158.9617 C.3     1  UNL1        0.1287
      2 C         138.6783  141.7962  160.3941 C.ar    1  UNL1        0.1351
      3 N         137.7892  142.9041  160.8759 N.ar    1  UNL1       -0.2279
      4 C         137.7932  142.8827  162.3757 C.ar    1  UNL1        0.1171
      5 C         138.6848  141.7616  162.8209 C.ar    1  UNL1        0.0769
      6 N         139.2318  141.0901  161.5962 N.ar    1  UNL1       -0.3394
      7 H         139.8462  140.3210  161.5836 H       1  UNL1        0.1671
      8 C         138.9779  141.3791  164.2414 C.ar    1  UNL1        0.0172
      9 C         138.4059  140.1149  164.8110 C.ar    1  UNL1        0.0015
     10 C         138.6991  139.7324  166.2315 C.ar    1  UNL1        0.0015
     11 C         139.5642  140.6142  167.0824 C.ar    1  UNL1        0.0171
     12 C         140.1362  141.8785  166.5128 C.ar    1  UNL1        0.0015
     13 C         139.8431  142.2609  165.0923 C.ar    1  UNL1        0.0015
     14 C         139.8574  140.2317  168.5029 C.ar    1  UNL1        0.0754
     15 C         141.2186  140.0145  169.0945 C.ar    1  UNL1        0.0409
     16 C         141.0433  139.6478  170.5384 C.ar    1  UNL1        0.1214
     17 N         139.5738  139.6384  170.8391 N.ar    1  UNL1       -0.1711
     18 N         138.8409  139.9993  169.5811 N.ar    1  UNL1       -0.2757
     19 H         137.8641  140.0711  169.4808 H       1  UNL1        0.1889
     20 N         137.8388  141.0881  158.0396 N.am    1  UNL1       -0.2956
     21 C         137.4371  142.0235  156.9381 C.2     1  UNL1        0.2537
     22 O         138.1603  143.3254  156.7586 O.2     1  UNL1       -0.2695
     23 H         137.3641  140.2336  158.1574 H       1  UNL1        0.1501
     24 C         136.3122  141.6572  156.0159 C.ar    1  UNL1        0.1033
     25 C         135.9898  142.3223  154.7107 C.ar    1  UNL1        0.1105
     26 N         134.7905  141.6375  154.1253 N.ar    1  UNL1       -0.2346
     27 C         134.3716  140.5492  155.0687 C.ar    1  UNL1        0.1347
     28 S         135.3121  140.5613  156.2372 S.2     1  UNL1       -0.0599
     29 C         140.3741  141.4790  158.4515 C.3     1  UNL1        0.0273
     30 C         141.3357  142.5144  158.9546 C.3     1  UNL1        0.0022
     31 C         141.1697  143.9501  158.5533 C.3     1  UNL1        0.0006
     32 C         141.2697  145.0338  159.5856 C.3     1  UNL1        0.0096
     33 C         140.7827  144.7861  160.9826 C.3     1  UNL1        0.0850
     34 C         143.5102  144.8830  163.8637 C.3     1  UNL1        0.1107
     35 N         142.5505  145.3382  162.8045 N.am    1  UNL1       -0.3027
     36 C         141.7424  144.3309  162.0417 C.2     1  UNL1        0.2225
     37 O         141.8939  142.8683  162.3379 O.2     1  UNL1       -0.2751
     38 H         142.4510  146.2982  162.6101 H       1  UNL1        0.1495
@<TRIPOS>BOND
     1    34    35    1
     2    35    36   am
     3    36    37    2
     4    36    33    1
     5    33    32    1
     6    32    31    1
     7    31    30    1
     8    30    29    1
     9     1    29    1
    10     1    20    1
    11    20    21   am
    12    21    22    2
    13    21    24    1
    14    24    25   ar
    15    25    26   ar
    16    26    27   ar
    17    27    28   ar
    18     1     2    1
    19     2     3   ar
    20     3     4   ar
    21     4     5   ar
    22     5     8    1
    23     8     9   ar
    24     9    10   ar
    25    10    11   ar
    26    11    14    1
    27    14    15   ar
    28    15    16   ar
    29    16    17   ar
    30    17    18   ar
    31    11    12   ar
    32    12    13   ar
    33     5     6   ar
    34    28    24   ar
    35     6     2   ar
    36    13     8   ar
    37    18    14   ar
    38    35    38    1
    39    20    23    1
    40    18    19    1
    41     6     7    1
@<TRIPOS>MOLECULE
*****
 38 41 0 0 0
SMALL
GASTEIGER

@<TRIPOS>ATOM
      1 C         142.4433  142.5475  159.7979 C.3     1  UNL1        0.1287
      2 C         142.5950  143.0413  161.2061 C.ar    1  UNL1        0.1351
      3 N         143.2810  144.3070  161.6276 N.ar    1  UNL1       -0.2279
      4 C         143.1974  144.4041  163.1221 C.ar    1  UNL1        0.1171
      5 C         142.4597  143.1984  163.6243 C.ar    1  UNL1        0.0769
      6 N         142.0875  142.3562  162.4402 N.ar    1  UNL1       -0.3394
      7 H         141.5962  141.5035  162.4681 H       1  UNL1        0.1671
      8 C         142.1489  142.8892  165.0589 C.ar    1  UNL1        0.0172
      9 C         140.7448  143.0263  165.5684 C.ar    1  UNL1        0.0015
     10 C         140.4340  142.7171  167.0029 C.ar    1  UNL1        0.0015
     11 C         141.5273  142.2709  167.9278 C.ar    1  UNL1        0.0171
     12 C         142.9314  142.1338  167.4183 C.ar    1  UNL1        0.0015
     13 C         143.2422  142.4430  165.9838 C.ar    1  UNL1        0.0015
     14 C         141.2164  141.9617  169.3623 C.ar    1  UNL1        0.0754
     15 C         141.0653  140.5926  169.9565 C.ar    1  UNL1        0.0409
     16 C         140.7576  140.7520  171.4159 C.ar    1  UNL1        0.1214
     17 N         140.7185  142.2196  171.7237 N.ar    1  UNL1       -0.1711
     18 N         141.0021  142.9672  170.4546 N.ar    1  UNL1       -0.2757
     19 H         141.0408  143.9459  170.3558 H       1  UNL1        0.1889
     20 N         141.9691  143.4802  158.7231 N.am    1  UNL1       -0.2956
     21 C         140.5051  143.7711  158.5748 C.2     1  UNL1        0.2537
     22 O         139.5153  143.1293  159.5012 O.2     1  UNL1       -0.2695
     23 H         142.6188  143.9015  158.1150 H       1  UNL1        0.1501
     24 C         140.0309  144.7038  157.5000 C.ar    1  UNL1        0.1033
     25 C         140.2119  146.1928  157.4817 C.ar    1  UNL1        0.1105
     26 N         139.5853  146.7204  156.2251 N.ar    1  UNL1       -0.2346
     27 C         139.0171  145.5577  155.4668 C.ar    1  UNL1        0.1347
     28 S         139.2925  144.3112  156.2547 S.2     1  UNL1       -0.0599
     29 C         142.7658  141.1210  159.4645 C.3     1  UNL1        0.0273
     30 C         143.7925  140.3771  160.2659 C.3     1  UNL1        0.0022
     31 C         143.6180  138.9114  160.5327 C.3     1  UNL1        0.0006
     32 C         143.9085  138.3574  161.8960 C.3     1  UNL1        0.0096
     33 C         144.1536  139.2875  163.0470 C.3     1  UNL1        0.0850
     34 C         141.1055  139.2148  165.5873 C.3     1  UNL1        0.1107
     35 N         141.8890  139.3699  164.3176 N.am    1  UNL1       -0.3027
     36 C         143.3700  139.1325  164.3166 C.2     1  UNL1        0.2225
     37 O         144.0676  138.7400  165.5852 O.2     1  UNL1       -0.2751
     38 H         141.4312  139.6275  163.4850 H       1  UNL1        0.1495
@<TRIPOS>BOND
     1    34    35    1
     2    35    36   am
     3    36    37    2
     4    36    33    1
     5    33    32    1
     6    32    31    1
     7    31    30    1
     8    30    29    1
     9     1    29    1
    10     1    20    1
    11    20    21   am
    12    21    22    2
    13    21    24    1
    14    24    25   ar
    15    25    26   ar
    16    26    27   ar
    17    27    28   ar
    18     1     2    1
    19     2     3   ar
    20     3     4   ar
    21     4     5   ar
    22     5     8    1
    23     8     9   ar
    24     9    10   ar
    25    10    11   ar
    26    11    14    1
    27    14    15   ar
    28    15    16   ar
    29    16    17   ar
    30    17    18   ar
    31    11    12   ar
    32    12    13   ar
    33     5     6   ar
    34    28    24   ar
    35     6     2   ar
    36    13     8   ar
    37    18    14   ar
    38    35    38    1
    39    20    23    1
    40    18    19    1
    41     6     7    1
@<TRIPOS>MOLECULE
*****
 38 41 0 0 0
SMALL
GASTEIGER

@<TRIPOS>ATOM
      1 C         143.4681  142.3590  159.6795 C.3     1  UNL1        0.1287
      2 C         143.8118  142.0510  161.1068 C.ar    1  UNL1        0.1351
      3 N         145.1931  141.8609  161.6598 N.ar    1  UNL1       -0.2279
      4 C         145.0695  141.5715  163.1264 C.ar    1  UNL1        0.1171
      5 C         143.6118  141.5826  163.4798 C.ar    1  UNL1        0.0769
      6 N         142.8345  141.8790  162.2316 N.ar    1  UNL1       -0.3394
      7 H         141.8548  141.9484  162.1627 H       1  UNL1        0.1671
      8 C         143.0329  141.3400  164.8422 C.ar    1  UNL1        0.0172
      9 C         142.1607  140.1439  165.0844 C.ar    1  UNL1        0.0015
     10 C         141.5819  139.9013  166.4468 C.ar    1  UNL1        0.0015
     11 C         141.8753  140.8548  167.5670 C.ar    1  UNL1        0.0171
     12 C         142.7474  142.0509  167.3248 C.ar    1  UNL1        0.0015
     13 C         143.3262  142.2935  165.9624 C.ar    1  UNL1        0.0015
     14 C         141.2964  140.6122  168.9294 C.ar    1  UNL1        0.0754
     15 C         141.8471  141.1278  170.2259 C.ar    1  UNL1        0.0409
     16 C         140.9563  140.6457  171.3323 C.ar    1  UNL1        0.1214
     17 N         139.8551  139.8321  170.7195 N.ar    1  UNL1       -0.1711
     18 N         140.0653  139.8114  169.2345 N.ar    1  UNL1       -0.2757
     19 H         139.4953  139.3528  168.5757 H       1  UNL1        0.1889
     20 N         144.5602  142.5382  158.6671 N.am    1  UNL1       -0.2956
     21 C         144.8964  141.4236  157.7212 C.2     1  UNL1        0.2537
     22 O         144.1404  140.1298  157.7879 O.2     1  UNL1       -0.2695
     23 H         145.0564  143.3874  158.6233 H       1  UNL1        0.1501
     24 C         145.9885  141.6028  156.7088 C.ar    1  UNL1        0.1033
     25 C         146.1444  140.8285  155.4336 C.ar    1  UNL1        0.1105
     26 N         147.3687  141.3350  154.7305 N.ar    1  UNL1       -0.2346
     27 C         147.9696  142.4224  155.5711 C.ar    1  UNL1        0.1347
     28 S         147.1165  142.5880  156.7938 S.2     1  UNL1       -0.0599
     29 C         142.0323  142.4878  159.2648 C.3     1  UNL1        0.0273
     30 C         141.6009  143.6368  158.4024 C.3     1  UNL1        0.0022
     31 C         140.5372  144.5782  158.8843 C.3     1  UNL1        0.0006
     32 C         140.7399  145.3531  160.1526 C.3     1  UNL1        0.0096
     33 C         140.3713  144.7420  161.4719 C.3     1  UNL1        0.0850
     34 C         143.7612  145.1996  163.4840 C.3     1  UNL1        0.1107
     35 N         142.7566  145.2434  162.3710 N.am    1  UNL1       -0.3027
     36 C         141.3758  144.6981  162.5850 C.2     1  UNL1        0.2225
     37 O         140.9995  144.1090  163.9121 O.2     1  UNL1       -0.2751
     38 H         143.0036  145.6301  161.4999 H       1  UNL1        0.1495
@<TRIPOS>BOND
     1    34    35    1
     2    35    36   am
     3    36    37    2
     4    36    33    1
     5    33    32    1
     6    32    31    1
     7    31    30    1
     8    30    29    1
     9     1    29    1
    10     1    20    1
    11    20    21   am
    12    21    22    2
    13    21    24    1
    14    24    25   ar
    15    25    26   ar
    16    26    27   ar
    17    27    28   ar
    18     1     2    1
    19     2     3   ar
    20     3     4   ar
    21     4     5   ar
    22     5     8    1
    23     8     9   ar
    24     9    10   ar
    25    10    11   ar
    26    11    14    1
    27    14    15   ar
    28    15    16   ar
    29    16    17   ar
    30    17    18   ar
    31    11    12   ar
    32    12    13   ar
    33     5     6   ar
    34    28    24   ar
    35     6     2   ar
    36    13     8   ar
    37    18    14   ar
    38    35    38    1
    39    20    23    1
    40    18    19    1
    41     6     7    1
