@<TRIPOS>MOLECULE
*****
 36 40 0 0 0
SMALL
GASTEIGER

@<TRIPOS>ATOM
      1 C         139.2002  138.3815  161.4385 C.3     1  UNL1        0.2588
      2 O         139.1728  138.7317  158.8642 O.2     1  UNL1       -0.2708
      3 C         139.9352  138.5152  160.1377 C.2     1  UNL1        0.2689
      4 N         141.4327  138.4322  160.1105 N.am    1  UNL1       -0.2664
      5 H         141.9331  138.2901  160.9463 H       1  UNL1        0.1564
      6 C         142.1677  138.5659  158.8098 C.ar    1  UNL1        0.1343
      7 C         142.7974  139.8748  158.4352 C.ar    1  UNL1        0.0354
      8 C         143.5325  140.0084  157.1345 C.ar    1  UNL1        0.0158
      9 C         143.6378  138.8331  156.2084 C.ar    1  UNL1        0.0769
     10 CL        144.3729  138.9668  154.9077 Cl      1  UNL1       -0.0806
     11 C         143.0081  137.5242  156.5830 C.ar    1  UNL1        0.1116
     12 N         142.2731  137.3906  157.8837 N.ar    1  UNL1       -0.2281
     13 C         137.8743  139.0580  161.6237 C.3     1  UNL1        0.1261
     14 N         137.8136  140.5391  161.8536 N.3     1  UNL1       -0.2650
     15 C         137.3748  141.4195  162.9860 C.3     1  UNL1        0.1033
     16 C         137.7278  142.6335  162.1788 C.3     1  UNL1        0.1423
     17 O         137.6671  144.1146  162.4088 O.3     1  UNL1       -0.3816
     18 C         138.1666  141.7531  161.0465 C.3     1  UNL1        0.1033
     19 H         137.3127  144.2900  163.2945 H       1  UNL1        0.2105
     20 O         139.7911  137.5713  162.5540 O.3     1  UNL1       -0.4529
     21 C         140.5899  138.2461  163.6295 C.ar    1  UNL1        0.2312
     22 N         142.0710  138.4190  163.4670 N.ar    1  UNL1       -0.1892
     23 C         142.8697  139.0938  164.5424 C.ar    1  UNL1        0.2029
     24 N         142.1874  139.5957  165.7804 N.ar    1  UNL1       -0.2045
     25 C         140.7063  139.4229  165.9428 C.ar    1  UNL1        0.1732
     26 C         139.9076  138.7481  164.8674 C.ar    1  UNL1        0.1099
     27 C         138.4727  138.7202  165.3040 C.ar    1  UNL1        0.1283
     28 N         138.3847  139.3778  166.6493 N.ar    1  UNL1       -0.1606
     29 N         139.7652  139.8121  167.0441 N.ar    1  UNL1       -0.1936
     30 C         140.1389  140.5126  168.3167 C.ar    1  UNL1        0.1759
     31 N         140.1861  139.7492  169.6071 N.ar    1  UNL1       -0.2242
     32 C         140.5598  140.4497  170.8797 C.ar    1  UNL1        0.1006
     33 C         140.8863  141.9137  170.8621 C.ar    1  UNL1        0.0217
     34 C         140.8390  142.6770  169.5717 C.ar    1  UNL1        0.0161
     35 C         140.4653  141.9765  168.2991 C.ar    1  UNL1        0.0935
     36 CL        140.4181  142.7400  167.0088 Cl      1  UNL1       -0.0790
@<TRIPOS>BOND
     1     2     3    2
     2     3     4   am
     3     4     6    1
     4     6     7   ar
     5     7     8   ar
     6     8     9   ar
     7     9    10    1
     8     9    11   ar
     9    11    12   ar
    10     3     1    1
    11     1    13    1
    12    13    14    1
    13    14    15    1
    14    15    16    1
    15    16    17    1
    16    16    18    1
    17     1    20    1
    18    20    21    1
    19    21    22   ar
    20    22    23   ar
    21    23    24   ar
    22    24    25   ar
    23    25    26   ar
    24    26    27   ar
    25    27    28   ar
    26    28    29   ar
    27    29    30    1
    28    30    31   ar
    29    31    32   ar
    30    32    33   ar
    31    33    34   ar
    32    34    35   ar
    33    35    36    1
    34    12     6   ar
    35    18    14    1
    36    26    21   ar
    37    35    30   ar
    38    29    25   ar
    39     4     5    1
    40    17    19    1
@<TRIPOS>MOLECULE
*****
 36 40 0 0 0
SMALL
GASTEIGER

@<TRIPOS>ATOM
      1 C         139.2659  138.4038  162.7140 C.3     1  UNL1        0.2588
      2 O         140.3749  137.2573  164.7648 O.2     1  UNL1       -0.2708
      3 C         139.8163  138.4842  164.1071 C.2     1  UNL1        0.2689
      4 N         139.8080  139.7915  164.8425 N.am    1  UNL1       -0.2664
      5 H         139.4413  140.5968  164.4108 H       1  UNL1        0.1564
      6 C         140.3583  139.8719  166.2356 C.ar    1  UNL1        0.1343
      7 C         139.4256  139.9787  167.4054 C.ar    1  UNL1        0.0354
      8 C         139.9759  140.0592  168.7985 C.ar    1  UNL1        0.0158
      9 C         141.4590  140.0328  169.0217 C.ar    1  UNL1        0.0769
     10 CL        142.0094  140.1132  170.4148 Cl      1  UNL1       -0.0806
     11 C         142.3918  139.9259  167.8518 C.ar    1  UNL1        0.1116
     12 N         141.8414  139.8455  166.4587 N.ar    1  UNL1       -0.2281
     13 C         137.9766  139.0917  162.3761 C.3     1  UNL1        0.1261
     14 N         137.9103  140.5900  162.3499 N.3     1  UNL1       -0.2650
     15 C         138.5040  141.6630  161.4860 C.3     1  UNL1        0.1033
     16 C         137.8166  142.7089  162.3128 C.3     1  UNL1        0.1423
     17 O         137.7504  144.2072  162.2865 O.3     1  UNL1       -0.3816
     18 C         137.2229  141.6360  163.1765 C.3     1  UNL1        0.1033
     19 H         138.2884  144.5419  161.5521 H       1  UNL1        0.2105
     20 O         140.0050  137.6355  161.6588 O.3     1  UNL1       -0.4529
     21 C         141.3951  138.0433  161.2693 C.ar    1  UNL1        0.2312
     22 N         142.5519  137.7152  162.1659 N.ar    1  UNL1       -0.1892
     23 C         143.9418  138.1230  161.7764 C.ar    1  UNL1        0.2029
     24 N         144.1749  138.8589  160.4903 N.ar    1  UNL1       -0.2045
     25 C         143.0180  139.1871  159.5937 C.ar    1  UNL1        0.1732
     26 C         141.6281  138.7792  159.9832 C.ar    1  UNL1        0.1099
     27 C         140.6912  139.2375  158.9050 C.ar    1  UNL1        0.1283
     28 N         141.5022  139.9285  157.8492 N.ar    1  UNL1       -0.1606
     29 N         142.9402  139.8974  158.2748 N.ar    1  UNL1       -0.1936
     30 C         144.0973  140.4750  157.5150 C.ar    1  UNL1        0.1759
     31 N         144.6509  139.7487  156.3251 N.ar    1  UNL1       -0.2242
     32 C         145.8080  140.3264  155.5653 C.ar    1  UNL1        0.1006
     33 C         146.4116  141.6305  155.9953 C.ar    1  UNL1        0.0217
     34 C         145.8580  142.3569  157.1852 C.ar    1  UNL1        0.0161
     35 C         144.7009  141.7792  157.9451 C.ar    1  UNL1        0.0935
     36 CL        144.1474  142.5056  159.1349 Cl      1  UNL1       -0.0790
@<TRIPOS>BOND
     1     2     3    2
     2     3     4   am
     3     4     6    1
     4     6     7   ar
     5     7     8   ar
     6     8     9   ar
     7     9    10    1
     8     9    11   ar
     9    11    12   ar
    10     3     1    1
    11     1    13    1
    12    13    14    1
    13    14    15    1
    14    15    16    1
    15    16    17    1
    16    16    18    1
    17     1    20    1
    18    20    21    1
    19    21    22   ar
    20    22    23   ar
    21    23    24   ar
    22    24    25   ar
    23    25    26   ar
    24    26    27   ar
    25    27    28   ar
    26    28    29   ar
    27    29    30    1
    28    30    31   ar
    29    31    32   ar
    30    32    33   ar
    31    33    34   ar
    32    34    35   ar
    33    35    36    1
    34    12     6   ar
    35    18    14    1
    36    26    21   ar
    37    35    30   ar
    38    29    25   ar
    39     4     5    1
    40    17    19    1
@<TRIPOS>MOLECULE
*****
 36 40 0 0 0
SMALL
GASTEIGER

@<TRIPOS>ATOM
      1 C         142.4026  139.5276  167.4194 C.3     1  UNL1        0.2588
      2 O         139.8874  140.0820  167.0781 O.2     1  UNL1       -0.2708
      3 C         141.3293  140.3359  166.7523 C.2     1  UNL1        0.2689
      4 N         141.6982  141.3980  165.7594 N.am    1  UNL1       -0.2664
      5 H         142.6446  141.5647  165.5456 H       1  UNL1        0.1564
      6 C         140.6250  142.2063  165.0923 C.ar    1  UNL1        0.1343
      7 C         140.0243  143.3846  165.7998 C.ar    1  UNL1        0.0354
      8 C         138.9512  144.1929  165.1327 C.ar    1  UNL1        0.0158
      9 C         138.4787  143.8227  163.7580 C.ar    1  UNL1        0.0769
     10 CL        137.4055  144.6310  163.0909 Cl      1  UNL1       -0.0806
     11 C         139.0794  142.6444  163.0504 C.ar    1  UNL1        0.1116
     12 N         140.1526  141.8361  163.7176 N.ar    1  UNL1       -0.2281
     13 C         142.5865  139.6069  168.9059 C.3     1  UNL1        0.1261
     14 N         142.7481  140.9414  169.5716 N.3     1  UNL1       -0.2650
     15 C         143.6816  142.1038  169.4050 C.3     1  UNL1        0.1033
     16 C         142.9765  142.8286  170.5129 C.3     1  UNL1        0.1423
     17 O         143.1381  144.1631  171.1785 O.3     1  UNL1       -0.3816
     18 C         142.0431  141.6664  170.6794 C.3     1  UNL1        0.1033
     19 H         143.8792  144.6393  170.7726 H       1  UNL1        0.2105
     20 O         143.2918  138.6401  166.5999 O.3     1  UNL1       -0.4529
     21 C         143.5531  138.9649  165.1589 C.ar    1  UNL1        0.2312
     22 N         144.6897  139.8707  164.7884 N.ar    1  UNL1       -0.1892
     23 C         144.9509  140.1954  163.3475 C.ar    1  UNL1        0.2029
     24 N         144.0754  139.6142  162.2771 N.ar    1  UNL1       -0.2045
     25 C         142.9388  138.7083  162.6476 C.ar    1  UNL1        0.1732
     26 C         142.6776  138.3837  164.0885 C.ar    1  UNL1        0.1099
     27 C         141.4920  137.4667  164.1496 C.ar    1  UNL1        0.1283
     28 N         141.0205  137.2247  162.7463 N.ar    1  UNL1       -0.1606
     29 N         141.9146  137.9921  161.8181 N.ar    1  UNL1       -0.1936
     30 C         141.8041  138.0356  160.3228 C.ar    1  UNL1        0.1759
     31 N         142.8191  137.3282  159.4748 N.ar    1  UNL1       -0.2242
     32 C         142.7085  137.3717  157.9795 C.ar    1  UNL1        0.1006
     33 C         141.5829  138.1226  157.3322 C.ar    1  UNL1        0.0217
     34 C         140.5678  138.8300  158.1802 C.ar    1  UNL1        0.0161
     35 C         140.6784  138.7865  159.6755 C.ar    1  UNL1        0.0935
     36 CL        139.6633  139.4940  160.5235 Cl      1  UNL1       -0.0790
@<TRIPOS>BOND
     1     2     3    2
     2     3     4   am
     3     4     6    1
     4     6     7   ar
     5     7     8   ar
     6     8     9   ar
     7     9    10    1
     8     9    11   ar
     9    11    12   ar
    10     3     1    1
    11     1    13    1
    12    13    14    1
    13    14    15    1
    14    15    16    1
    15    16    17    1
    16    16    18    1
    17     1    20    1
    18    20    21    1
    19    21    22   ar
    20    22    23   ar
    21    23    24   ar
    22    24    25   ar
    23    25    26   ar
    24    26    27   ar
    25    27    28   ar
    26    28    29   ar
    27    29    30    1
    28    30    31   ar
    29    31    32   ar
    30    32    33   ar
    31    33    34   ar
    32    34    35   ar
    33    35    36    1
    34    12     6   ar
    35    18    14    1
    36    26    21   ar
    37    35    30   ar
    38    29    25   ar
    39     4     5    1
    40    17    19    1
@<TRIPOS>MOLECULE
*****
 36 40 0 0 0
SMALL
GASTEIGER

@<TRIPOS>ATOM
      1 C         141.0989  144.5794  160.0191 C.3     1  UNL1        0.2588
      2 O         142.3662  146.1345  158.3682 O.2     1  UNL1       -0.2708
      3 C         141.1197  145.3997  158.7634 C.2     1  UNL1        0.2689
      4 N         139.8941  145.4850  157.9029 N.am    1  UNL1       -0.2664
      5 H         139.0759  145.0027  158.1623 H       1  UNL1        0.1564
      6 C         139.9149  146.3052  156.6472 C.ar    1  UNL1        0.1343
      7 C         140.7464  145.8663  155.4784 C.ar    1  UNL1        0.0354
      8 C         140.7672  146.6865  154.2227 C.ar    1  UNL1        0.0158
      9 C         139.9566  147.9457  154.1358 C.ar    1  UNL1        0.0769
     10 CL        139.9774  148.7659  152.8801 Cl      1  UNL1       -0.0806
     11 C         139.1251  148.3846  155.3046 C.ar    1  UNL1        0.1116
     12 N         139.1043  147.5643  156.5603 N.ar    1  UNL1       -0.2281
     13 C         141.1503  143.0825  159.9381 C.3     1  UNL1        0.1261
     14 N         142.2818  142.3352  160.5793 N.3     1  UNL1       -0.2650
     15 C         143.7460  142.5936  160.7781 C.3     1  UNL1        0.1033
     16 C         143.8820  141.2783  161.4861 C.3     1  UNL1        0.1423
     17 O         145.0135  140.5309  162.1274 O.3     1  UNL1       -0.3816
     18 C         142.4180  141.0199  161.2875 C.3     1  UNL1        0.1033
     19 H         145.8300  141.0483  162.0460 H       1  UNL1        0.2105
     20 O         141.0265  145.2561  161.3559 O.3     1  UNL1       -0.4529
     21 C         140.1717  144.6774  162.4442 C.ar    1  UNL1        0.2312
     22 N         138.6775  144.7770  162.3573 N.ar    1  UNL1       -0.1892
     23 C         137.8228  144.1983  163.4456 C.ar    1  UNL1        0.2029
     24 N         138.4622  143.5199  164.6208 N.ar    1  UNL1       -0.2045
     25 C         139.9564  143.4203  164.7077 C.ar    1  UNL1        0.1732
     26 C         140.8111  143.9990  163.6194 C.ar    1  UNL1        0.1099
     27 C         142.2468  143.7507  163.9760 C.ar    1  UNL1        0.1283
     28 N         142.2794  143.0185  165.2847 N.ar    1  UNL1       -0.1606
     29 N         140.8638  142.8143  165.7369 N.ar    1  UNL1       -0.1936
     30 C         140.4315  142.1251  166.9971 C.ar    1  UNL1        0.1759
     31 N         140.5400  142.8338  168.3147 N.ar    1  UNL1       -0.2242
     32 C         140.1077  142.1446  169.5749 C.ar    1  UNL1        0.1006
     33 C         139.5669  140.7466  169.5175 C.ar    1  UNL1        0.0217
     34 C         139.4584  140.0380  168.2000 C.ar    1  UNL1        0.0161
     35 C         139.8907  140.7272  166.9398 C.ar    1  UNL1        0.0935
     36 CL        139.7821  140.0184  165.6223 Cl      1  UNL1       -0.0790
@<TRIPOS>BOND
     1     2     3    2
     2     3     4   am
     3     4     6    1
     4     6     7   ar
     5     7     8   ar
     6     8     9   ar
     7     9    10    1
     8     9    11   ar
     9    11    12   ar
    10     3     1    1
    11     1    13    1
    12    13    14    1
    13    14    15    1
    14    15    16    1
    15    16    17    1
    16    16    18    1
    17     1    20    1
    18    20    21    1
    19    21    22   ar
    20    22    23   ar
    21    23    24   ar
    22    24    25   ar
    23    25    26   ar
    24    26    27   ar
    25    27    28   ar
    26    28    29   ar
    27    29    30    1
    28    30    31   ar
    29    31    32   ar
    30    32    33   ar
    31    33    34   ar
    32    34    35   ar
    33    35    36    1
    34    12     6   ar
    35    18    14    1
    36    26    21   ar
    37    35    30   ar
    38    29    25   ar
    39     4     5    1
    40    17    19    1
@<TRIPOS>MOLECULE
*****
 36 40 0 0 0
SMALL
GASTEIGER

@<TRIPOS>ATOM
      1 C         141.0090  138.3920  160.5577 C.3     1  UNL1        0.2588
      2 O         143.5849  138.3812  160.2195 O.2     1  UNL1       -0.2708
      3 C         142.2355  138.9541  159.9021 C.2     1  UNL1        0.2689
      4 N         142.1125  140.0891  158.9291 N.am    1  UNL1       -0.2664
      5 H         141.2268  140.4650  158.7208 H       1  UNL1        0.1564
      6 C         143.3389  140.6512  158.2735 C.ar    1  UNL1        0.1343
      7 C         143.9201  141.9471  158.7558 C.ar    1  UNL1        0.0354
      8 C         145.1465  142.5093  158.1002 C.ar    1  UNL1        0.0158
      9 C         145.7919  141.7754  156.9622 C.ar    1  UNL1        0.0769
     10 CL        147.0183  142.3375  156.3066 Cl      1  UNL1       -0.0806
     11 C         145.2107  140.4794  156.4799 C.ar    1  UNL1        0.1116
     12 N         143.9842  139.9173  157.1355 N.ar    1  UNL1       -0.2281
     13 C         139.6481  138.7796  160.0601 C.3     1  UNL1        0.1261
     14 N         139.0532  140.0990  160.4541 N.3     1  UNL1       -0.2650
     15 C         138.5650  141.3069  159.7105 C.3     1  UNL1        0.1033
     16 C         138.2119  141.9650  161.0113 C.3     1  UNL1        0.1423
     17 O         137.6170  143.2844  161.4054 O.3     1  UNL1       -0.3816
     18 C         138.7000  140.7572  161.7549 C.3     1  UNL1        0.1033
     19 H         137.4305  143.8057  160.6089 H       1  UNL1        0.2105
     20 O         141.1434  137.4422  161.7109 O.3     1  UNL1       -0.4529
     21 C         140.7781  137.8877  163.0959 C.ar    1  UNL1        0.2312
     22 N         139.3816  137.6859  163.6048 N.ar    1  UNL1       -0.1892
     23 C         139.0164  138.1314  164.9897 C.ar    1  UNL1        0.2029
     24 N         140.0477  138.7786  165.8658 N.ar    1  UNL1       -0.2045
     25 C         141.4442  138.9804  165.3569 C.ar    1  UNL1        0.1732
     26 C         141.8094  138.5349  163.9720 C.ar    1  UNL1        0.1099
     27 C         143.2555  138.8634  163.7456 C.ar    1  UNL1        0.1283
     28 N         143.7839  139.5119  164.9906 N.ar    1  UNL1       -0.1606
     29 N         142.6645  139.5842  165.9865 N.ar    1  UNL1       -0.1936
     30 C         142.7502  140.1593  167.3692 C.ar    1  UNL1        0.1759
     31 N         142.7225  139.2509  168.5624 N.ar    1  UNL1       -0.2242
     32 C         142.8082  139.8260  169.9451 C.ar    1  UNL1        0.1006
     33 C         142.9218  141.3097  170.1346 C.ar    1  UNL1        0.0217
     34 C         142.9495  142.2181  168.9414 C.ar    1  UNL1        0.0161
     35 C         142.8637  141.6430  167.5587 C.ar    1  UNL1        0.0935
     36 CL        142.8915  142.5515  166.3655 Cl      1  UNL1       -0.0790
@<TRIPOS>BOND
     1     2     3    2
     2     3     4   am
     3     4     6    1
     4     6     7   ar
     5     7     8   ar
     6     8     9   ar
     7     9    10    1
     8     9    11   ar
     9    11    12   ar
    10     3     1    1
    11     1    13    1
    12    13    14    1
    13    14    15    1
    14    15    16    1
    15    16    17    1
    16    16    18    1
    17     1    20    1
    18    20    21    1
    19    21    22   ar
    20    22    23   ar
    21    23    24   ar
    22    24    25   ar
    23    25    26   ar
    24    26    27   ar
    25    27    28   ar
    26    28    29   ar
    27    29    30    1
    28    30    31   ar
    29    31    32   ar
    30    32    33   ar
    31    33    34   ar
    32    34    35   ar
    33    35    36    1
    34    12     6   ar
    35    18    14    1
    36    26    21   ar
    37    35    30   ar
    38    29    25   ar
    39     4     5    1
    40    17    19    1
@<TRIPOS>MOLECULE
*****
 36 40 0 0 0
SMALL
GASTEIGER

@<TRIPOS>ATOM
      1 C         138.2392  142.2055  164.2180 C.3     1  UNL1        0.2588
      2 O         139.8925  143.0817  166.0205 O.2     1  UNL1       -0.2708
      3 C         139.1474  141.9464  165.3834 C.2     1  UNL1        0.2689
      4 N         139.3104  140.5520  165.9117 N.am    1  UNL1       -0.2664
      5 H         138.8213  139.8069  165.4936 H       1  UNL1        0.1564
      6 C         140.2185  140.2929  167.0771 C.ar    1  UNL1        0.1343
      7 C         141.6159  139.8002  166.8439 C.ar    1  UNL1        0.0354
      8 C         142.5240  139.5410  168.0093 C.ar    1  UNL1        0.0158
      9 C         142.0347  139.7746  169.4079 C.ar    1  UNL1        0.0769
     10 CL        142.9429  139.5155  170.5733 Cl      1  UNL1       -0.0806
     11 C         140.6373  140.2673  169.6411 C.ar    1  UNL1        0.1116
     12 N         139.7292  140.5265  168.4756 N.ar    1  UNL1       -0.2281
     13 C         138.1134  143.5917  163.6588 C.3     1  UNL1        0.1261
     14 N         139.1913  144.1441  162.7739 N.3     1  UNL1       -0.2650
     15 C         140.3997  143.5741  162.0920 C.3     1  UNL1        0.1033
     16 C         140.7156  144.9253  161.5225 C.3     1  UNL1        0.1423
     17 O         141.7934  145.4777  160.6376 O.3     1  UNL1       -0.3816
     18 C         139.5073  145.4953  162.2044 C.3     1  UNL1        0.1033
     19 H         142.4105  144.7686  160.3984 H       1  UNL1        0.2105
     20 O         137.4568  141.0784  163.6118 O.3     1  UNL1       -0.4529
     21 C         138.1720  139.9562  162.9194 C.ar    1  UNL1        0.2312
     22 N         138.5410  138.7184  163.6819 N.ar    1  UNL1       -0.1892
     23 C         139.2562  137.5963  162.9895 C.ar    1  UNL1        0.2029
     24 N         139.6023  137.7121  161.5346 N.ar    1  UNL1       -0.2045
     25 C         139.2332  138.9499  160.7721 C.ar    1  UNL1        0.1732
     26 C         138.5181  140.0720  161.4645 C.ar    1  UNL1        0.1099
     27 C         138.2845  141.1621  160.4608 C.ar    1  UNL1        0.1283
     28 N         138.8552  140.7137  159.1482 N.ar    1  UNL1       -0.1606
     29 N         139.4416  139.3465  159.3405 N.ar    1  UNL1       -0.1936
     30 C         140.1176  138.5208  158.2864 C.ar    1  UNL1        0.1759
     31 N         139.3160  137.9416  157.1587 N.ar    1  UNL1       -0.2242
     32 C         139.9921  137.1159  156.1046 C.ar    1  UNL1        0.1006
     33 C         141.4698  136.8694  156.1781 C.ar    1  UNL1        0.0217
     34 C         142.2715  137.4487  157.3059 C.ar    1  UNL1        0.0161
     35 C         141.5954  138.2743  158.3600 C.ar    1  UNL1        0.0935
     36 CL        142.3972  138.8535  159.4877 Cl      1  UNL1       -0.0790
@<TRIPOS>BOND
     1     2     3    2
     2     3     4   am
     3     4     6    1
     4     6     7   ar
     5     7     8   ar
     6     8     9   ar
     7     9    10    1
     8     9    11   ar
     9    11    12   ar
    10     3     1    1
    11     1    13    1
    12    13    14    1
    13    14    15    1
    14    15    16    1
    15    16    17    1
    16    16    18    1
    17     1    20    1
    18    20    21    1
    19    21    22   ar
    20    22    23   ar
    21    23    24   ar
    22    24    25   ar
    23    25    26   ar
    24    26    27   ar
    25    27    28   ar
    26    28    29   ar
    27    29    30    1
    28    30    31   ar
    29    31    32   ar
    30    32    33   ar
    31    33    34   ar
    32    34    35   ar
    33    35    36    1
    34    12     6   ar
    35    18    14    1
    36    26    21   ar
    37    35    30   ar
    38    29    25   ar
    39     4     5    1
    40    17    19    1
@<TRIPOS>MOLECULE
*****
 36 40 0 0 0
SMALL
GASTEIGER

@<TRIPOS>ATOM
      1 C         142.3960  139.7948  166.4736 C.3     1  UNL1        0.2588
      2 O         143.2881  142.0014  165.4319 O.2     1  UNL1       -0.2708
      3 C         142.1591  141.0455  165.6801 C.2     1  UNL1        0.2689
      4 N         140.7931  141.3404  165.1349 N.am    1  UNL1       -0.2664
      5 H         140.0521  140.7130  165.2978 H       1  UNL1        0.1564
      6 C         140.5562  142.5911  164.3415 C.ar    1  UNL1        0.1343
      7 C         139.8190  143.7424  164.9587 C.ar    1  UNL1        0.0354
      8 C         139.5820  144.9931  164.1653 C.ar    1  UNL1        0.0158
      9 C         140.0822  145.0925  162.7546 C.ar    1  UNL1        0.0769
     10 CL        139.8452  146.3432  161.9612 Cl      1  UNL1       -0.0806
     11 C         140.8194  143.9411  162.1374 C.ar    1  UNL1        0.1116
     12 N         141.0563  142.6904  162.9309 N.ar    1  UNL1       -0.2281
     13 C         142.4138  139.8495  167.9724 C.3     1  UNL1        0.1261
     14 N         141.1315  140.0185  168.7321 N.3     1  UNL1       -0.2650
     15 C         139.6856  140.1528  168.3558 C.3     1  UNL1        0.1033
     16 C         139.3180  140.2575  169.8063 C.3     1  UNL1        0.1423
     17 O         138.0357  140.4266  170.5659 O.3     1  UNL1       -0.3816
     18 C         140.7637  140.1232  170.1825 C.3     1  UNL1        0.1033
     19 H         137.2944  140.4757  169.9422 H       1  UNL1        0.2105
     20 O         142.6152  138.4893  165.7681 O.3     1  UNL1       -0.4529
     21 C         141.9103  138.2085  164.4741 C.ar    1  UNL1        0.2312
     22 N         140.5092  137.6730  164.4841 N.ar    1  UNL1       -0.1892
     23 C         139.8044  137.3922  163.1901 C.ar    1  UNL1        0.2029
     24 N         140.5007  137.6470  161.8861 N.ar    1  UNL1       -0.2045
     25 C         141.9017  138.1826  161.8761 C.ar    1  UNL1        0.1732
     26 C         142.6065  138.4633  163.1701 C.ar    1  UNL1        0.1099
     27 C         143.9761  138.9841  162.8485 C.ar    1  UNL1        0.1283
     28 N         144.1176  139.0251  161.3558 N.ar    1  UNL1       -0.1606
     29 N         142.8356  138.5298  160.7548 N.ar    1  UNL1       -0.1936
     30 C         142.5394  138.4038  159.2898 C.ar    1  UNL1        0.1759
     31 N         143.0146  137.2014  158.5292 N.ar    1  UNL1       -0.2242
     32 C         142.7184  137.0754  157.0642 C.ar    1  UNL1        0.1006
     33 C         141.9470  138.1518  156.3596 C.ar    1  UNL1        0.0217
     34 C         141.4719  139.3542  157.1202 C.ar    1  UNL1        0.0161
     35 C         141.7681  139.4802  158.5852 C.ar    1  UNL1        0.0935
     36 CL        141.2929  140.6826  159.3457 Cl      1  UNL1       -0.0790
@<TRIPOS>BOND
     1     2     3    2
     2     3     4   am
     3     4     6    1
     4     6     7   ar
     5     7     8   ar
     6     8     9   ar
     7     9    10    1
     8     9    11   ar
     9    11    12   ar
    10     3     1    1
    11     1    13    1
    12    13    14    1
    13    14    15    1
    14    15    16    1
    15    16    17    1
    16    16    18    1
    17     1    20    1
    18    20    21    1
    19    21    22   ar
    20    22    23   ar
    21    23    24   ar
    22    24    25   ar
    23    25    26   ar
    24    26    27   ar
    25    27    28   ar
    26    28    29   ar
    27    29    30    1
    28    30    31   ar
    29    31    32   ar
    30    32    33   ar
    31    33    34   ar
    32    34    35   ar
    33    35    36    1
    34    12     6   ar
    35    18    14    1
    36    26    21   ar
    37    35    30   ar
    38    29    25   ar
    39     4     5    1
    40    17    19    1
@<TRIPOS>MOLECULE
*****
 36 40 0 0 0
SMALL
GASTEIGER

@<TRIPOS>ATOM
      1 C         140.9918  144.3472  160.3013 C.3     1  UNL1        0.2588
      2 O         142.2635  145.9774  158.7281 O.2     1  UNL1       -0.2708
      3 C         141.0407  145.1698  159.0479 C.2     1  UNL1        0.2689
      4 N         139.8667  145.1846  158.1143 N.am    1  UNL1       -0.2664
      5 H         139.0641  144.6545  158.3242 H       1  UNL1        0.1564
      6 C         139.9155  146.0072  156.8609 C.ar    1  UNL1        0.1343
      7 C         140.7257  145.5398  155.6882 C.ar    1  UNL1        0.0354
      8 C         140.7745  146.3623  154.4349 C.ar    1  UNL1        0.0158
      9 C         140.0131  147.6523  154.3542 C.ar    1  UNL1        0.0769
     10 CL        140.0619  148.4749  153.1008 Cl      1  UNL1       -0.0806
     11 C         139.2030  148.1197  155.5269 C.ar    1  UNL1        0.1116
     12 N         139.1542  147.2970  156.7803 N.ar    1  UNL1       -0.2281
     13 C         140.5688  142.9094  160.2388 C.3     1  UNL1        0.1261
     14 N         139.4086  142.4326  161.0614 N.3     1  UNL1       -0.2650
     15 C         138.9448  141.0992  161.5686 C.3     1  UNL1        0.1033
     16 C         137.7678  141.7582  162.2246 C.3     1  UNL1        0.1423
     17 O         136.6076  141.2814  163.0471 O.3     1  UNL1       -0.3816
     18 C         138.2315  143.0915  161.7174 C.3     1  UNL1        0.1033
     19 H         136.6651  140.3197  163.1603 H       1  UNL1        0.2105
     20 O         141.3660  144.9624  161.6172 O.3     1  UNL1       -0.4529
     21 C         142.2188  144.1987  162.5866 C.ar    1  UNL1        0.2312
     22 N         143.6394  143.8680  162.2369 N.ar    1  UNL1       -0.1892
     23 C         144.4921  143.1044  163.2064 C.ar    1  UNL1        0.2029
     24 N         143.9242  142.6716  164.5255 N.ar    1  UNL1       -0.2045
     25 C         142.5035  143.0023  164.8752 C.ar    1  UNL1        0.1732
     26 C         141.6508  143.7659  163.9058 C.ar    1  UNL1        0.1099
     27 C         140.2953  143.9459  164.5225 C.ar    1  UNL1        0.1283
     28 N         140.3103  143.2935  165.8731 N.ar    1  UNL1       -0.1606
     29 N         141.6751  142.7103  166.0911 N.ar    1  UNL1       -0.1936
     30 C         142.1312  141.9659  167.3108 C.ar    1  UNL1        0.1759
     31 N         142.9542  142.6649  168.3520 N.ar    1  UNL1       -0.2242
     32 C         143.4104  141.9205  169.5717 C.ar    1  UNL1        0.1006
     33 C         143.0436  140.4770  169.7502 C.ar    1  UNL1        0.0217
     34 C         142.2207  139.7780  168.7090 C.ar    1  UNL1        0.0161
     35 C         141.7645  140.5224  167.4893 C.ar    1  UNL1        0.0935
     36 CL        140.9416  139.8234  166.4481 Cl      1  UNL1       -0.0790
@<TRIPOS>BOND
     1     2     3    2
     2     3     4   am
     3     4     6    1
     4     6     7   ar
     5     7     8   ar
     6     8     9   ar
     7     9    10    1
     8     9    11   ar
     9    11    12   ar
    10     3     1    1
    11     1    13    1
    12    13    14    1
    13    14    15    1
    14    15    16    1
    15    16    17    1
    16    16    18    1
    17     1    20    1
    18    20    21    1
    19    21    22   ar
    20    22    23   ar
    21    23    24   ar
    22    24    25   ar
    23    25    26   ar
    24    26    27   ar
    25    27    28   ar
    26    28    29   ar
    27    29    30    1
    28    30    31   ar
    29    31    32   ar
    30    32    33   ar
    31    33    34   ar
    32    34    35   ar
    33    35    36    1
    34    12     6   ar
    35    18    14    1
    36    26    21   ar
    37    35    30   ar
    38    29    25   ar
    39     4     5    1
    40    17    19    1
@<TRIPOS>MOLECULE
*****
 36 40 0 0 0
SMALL
GASTEIGER

@<TRIPOS>ATOM
      1 C         143.8293  143.0217  161.4345 C.3     1  UNL1        0.2588
      2 O         143.5329  142.5066  158.9053 O.2     1  UNL1       -0.2708
      3 C         143.1905  143.3285  160.1124 C.2     1  UNL1        0.2689
      4 N         142.2094  144.4573  159.9975 N.am    1  UNL1       -0.2664
      5 H         141.9847  144.9968  160.7898 H       1  UNL1        0.1564
      6 C         141.5707  144.7642  158.6755 C.ar    1  UNL1        0.1343
      7 C         140.2938  144.0818  158.2830 C.ar    1  UNL1        0.0354
      8 C         139.6551  144.3886  156.9610 C.ar    1  UNL1        0.0158
      9 C         140.2931  145.3779  156.0313 C.ar    1  UNL1        0.0769
     10 CL        139.6544  145.6848  154.7093 Cl      1  UNL1       -0.0806
     11 C         141.5700  146.0604  156.4238 C.ar    1  UNL1        0.1116
     12 N         142.2087  145.7535  157.7459 N.ar    1  UNL1       -0.2281
     13 C         144.6183  141.7583  161.6110 C.3     1  UNL1        0.1261
     14 N         143.9201  140.4307  161.6039 N.3     1  UNL1       -0.2650
     15 C         144.0563  139.1649  160.8107 C.3     1  UNL1        0.1033
     16 C         142.9326  138.5533  161.5938 C.3     1  UNL1        0.1423
     17 O         142.2343  137.2258  161.5867 O.3     1  UNL1       -0.3816
     18 C         142.7963  139.8191  162.3869 C.3     1  UNL1        0.1033
     19 H         142.6270  136.6576  160.9056 H       1  UNL1        0.2105
     20 O         143.6790  143.9783  162.5801 O.3     1  UNL1       -0.4529
     21 C         142.4886  143.8805  163.4876 C.ar    1  UNL1        0.2312
     22 N         141.2405  144.6506  163.1731 N.ar    1  UNL1       -0.1892
     23 C         140.0502  144.5527  164.0807 C.ar    1  UNL1        0.2029
     24 N         140.1082  143.6848  165.3027 N.ar    1  UNL1       -0.2045
     25 C         141.3564  142.9147  165.6172 C.ar    1  UNL1        0.1732
     26 C         142.5466  143.0126  164.7096 C.ar    1  UNL1        0.1099
     27 C         143.6317  142.1433  165.2729 C.ar    1  UNL1        0.1283
     28 N         143.1120  141.5083  166.5285 N.ar    1  UNL1       -0.1606
     29 N         141.7058  141.9851  166.7413 N.ar    1  UNL1       -0.1936
     30 C         140.8068  141.5998  167.8785 C.ar    1  UNL1        0.1759
     31 N         140.7736  142.4345  169.1244 N.ar    1  UNL1       -0.2242
     32 C         139.8746  142.0492  170.2616 C.ar    1  UNL1        0.1006
     33 C         139.0087  140.8291  170.1531 C.ar    1  UNL1        0.0217
     34 C         139.0419  139.9944  168.9073 C.ar    1  UNL1        0.0161
     35 C         139.9409  140.3797  167.7700 C.ar    1  UNL1        0.0935
     36 CL        139.9741  139.5449  166.5242 Cl      1  UNL1       -0.0790
@<TRIPOS>BOND
     1     2     3    2
     2     3     4   am
     3     4     6    1
     4     6     7   ar
     5     7     8   ar
     6     8     9   ar
     7     9    10    1
     8     9    11   ar
     9    11    12   ar
    10     3     1    1
    11     1    13    1
    12    13    14    1
    13    14    15    1
    14    15    16    1
    15    16    17    1
    16    16    18    1
    17     1    20    1
    18    20    21    1
    19    21    22   ar
    20    22    23   ar
    21    23    24   ar
    22    24    25   ar
    23    25    26   ar
    24    26    27   ar
    25    27    28   ar
    26    28    29   ar
    27    29    30    1
    28    30    31   ar
    29    31    32   ar
    30    32    33   ar
    31    33    34   ar
    32    34    35   ar
    33    35    36    1
    34    12     6   ar
    35    18    14    1
    36    26    21   ar
    37    35    30   ar
    38    29    25   ar
    39     4     5    1
    40    17    19    1
