@<TRIPOS>MOLECULE
*****
 33 35 0 0 0
SMALL
GASTEIGER

@<TRIPOS>ATOM
      1 C         141.3749  142.6520  165.7416 C.ar    1  UNL1        0.0000
      2 C         140.0268  143.2865  165.5685 C.ar    1  UNL1        0.0000
      3 C         139.7826  144.2296  164.4279 C.ar    1  UNL1        0.0016
      4 C         140.8866  144.5383  163.4605 C.ar    1  UNL1        0.0207
      5 C         142.2347  143.9039  163.6336 C.ar    1  UNL1        0.0016
      6 C         142.4788  142.9607  164.7742 C.ar    1  UNL1        0.0000
      7 C         142.1073  139.8226  169.1633 C.ar    1  UNL1        0.0222
      8 C         141.3003  141.0683  169.3797 C.ar    1  UNL1        0.0016
      9 C         141.0562  142.0114  168.2392 C.ar    1  UNL1        0.0001
     10 C         141.6190  141.7089  166.8822 C.ar    1  UNL1        0.0000
     11 C         142.4261  140.4632  166.6657 C.ar    1  UNL1        0.0001
     12 C         142.6702  139.5200  167.8062 C.ar    1  UNL1        0.0016
     13 N         143.3142  137.7406  170.1423 N.2     1  UNL1       -0.1091
     14 C         142.3515  138.8794  170.3038 C.2     1  UNL1        0.1359
     15 N         143.5583  136.7974  171.2829 N.pl3   1  UNL1       -0.1544
     16 H         142.9910  136.8394  172.0864 H       1  UNL1        0.2922
     17 N         145.6449  135.8442  170.0631 N.pl3   1  UNL1       -0.1280
     18 C         144.6669  135.7903  171.1991 C.cat   1  UNL1        0.3997
     19 N         144.7974  134.7294  172.2515 N.pl3   1  UNL1       -0.2876
     20 H         146.3724  135.1832  170.0082 H       1  UNL1        0.3062
     21 H         145.5250  134.0684  172.1966 H       1  UNL1        0.2547
     22 H         144.1555  134.6941  172.9971 H       1  UNL1        0.2547
     23 C         140.6424  145.4815  162.3199 C.2     1  UNL1        0.1175
     24 N         139.8958  145.0132  161.1062 N.2     1  UNL1       -0.1798
     25 N         139.6516  145.9564  159.9656 N.pl3   1  UNL1       -0.2359
     26 H         138.9972  146.6856  160.0614 H       1  UNL1        0.1744
     27 C         140.4047  145.7884  158.6792 C.ar    1  UNL1        0.0652
     28 C         141.6664  144.9779  158.6491 C.ar    1  UNL1        0.0183
     29 C         142.4194  144.8100  157.3626 C.ar    1  UNL1        0.0310
     30 C         141.9107  145.4526  156.1064 C.ar    1  UNL1        0.1402
     31 F         142.6636  145.2847  154.8200 F       1  UNL1       -0.2042
     32 C         140.6488  146.2632  156.1366 C.ar    1  UNL1        0.0310
     33 C         139.8959  146.4311  157.4230 C.ar    1  UNL1        0.0183
@<TRIPOS>BOND
     1    17    18    2
     2    18    19    1
     3    18    15    1
     4    15    13    1
     5    13    14    2
     6    14     7    1
     7     7     8   ar
     8     8     9   ar
     9     9    10   ar
    10    10     1    1
    11     1     2   ar
    12     2     3   ar
    13     3     4   ar
    14     4    23    1
    15    23    24    2
    16    24    25    1
    17    25    27    1
    18    27    28   ar
    19    28    29   ar
    20    29    30   ar
    21    30    31    1
    22    30    32   ar
    23    32    33   ar
    24     4     5   ar
    25     5     6   ar
    26    10    11   ar
    27    11    12   ar
    28    12     7   ar
    29     6     1   ar
    30    33    27   ar
    31    17    20    1
    32    19    21    1
    33    19    22    1
    34    15    16    1
    35    25    26    1
@<TRIPOS>MOLECULE
*****
 33 35 0 0 0
SMALL
GASTEIGER

@<TRIPOS>ATOM
      1 C         140.9240  138.6269  163.9080 C.ar    1  UNL1        0.0000
      2 C         140.0531  138.4273  162.7031 C.ar    1  UNL1        0.0000
      3 C         140.6731  138.1218  161.3719 C.ar    1  UNL1        0.0016
      4 C         142.1640  138.0158  161.2455 C.ar    1  UNL1        0.0207
      5 C         143.0348  138.2154  162.4503 C.ar    1  UNL1        0.0016
      6 C         142.4148  138.5210  163.7816 C.ar    1  UNL1        0.0000
      7 C         139.0639  139.5435  167.9017 C.ar    1  UNL1        0.0222
      8 C         138.2539  138.8699  166.8340 C.ar    1  UNL1        0.0016
      9 C         138.8739  138.5644  165.5028 C.ar    1  UNL1        0.0001
     10 C         140.3039  138.9325  165.2392 C.ar    1  UNL1        0.0000
     11 C         141.1140  139.6061  166.3069 C.ar    1  UNL1        0.0001
     12 C         140.4939  139.9116  167.6382 C.ar    1  UNL1        0.0016
     13 N         137.3855  138.9454  169.7925 N.2     1  UNL1       -0.1091
     14 C         138.4439  139.8491  169.2330 C.2     1  UNL1        0.1359
     15 N         136.7655  139.2510  171.1238 N.pl3   1  UNL1       -0.1544
     16 H         136.8012  140.1661  171.4850 H       1  UNL1        0.2922
     17 N         136.5353  136.7385  171.7440 N.pl3   1  UNL1       -0.1280
     18 C         136.0911  138.1621  171.9046 C.cat   1  UNL1        0.3997
     19 N         134.9725  138.4970  172.8462 N.pl3   1  UNL1       -0.2876
     20 H         136.0927  136.0239  172.2565 H       1  UNL1        0.3062
     21 H         134.5298  137.7824  173.3587 H       1  UNL1        0.2547
     22 H         134.6809  139.4314  172.9516 H       1  UNL1        0.2547
     23 C         142.7840  137.7103  159.9142 C.2     1  UNL1        0.1175
     24 N         142.8231  138.7624  158.8459 N.2     1  UNL1       -0.1798
     25 N         143.4431  138.4569  157.5146 N.pl3   1  UNL1       -0.2359
     26 H         144.2261  138.9685  157.2072 H       1  UNL1        0.1744
     27 C         142.8702  137.3719  156.6517 C.ar    1  UNL1        0.0652
     28 C         143.7810  136.3832  155.9863 C.ar    1  UNL1        0.0183
     29 C         143.2081  135.2982  155.1234 C.ar    1  UNL1        0.0310
     30 C         141.7242  135.2019  154.9260 C.ar    1  UNL1        0.1402
     31 F         141.1513  134.1169  154.0632 F       1  UNL1       -0.2042
     32 C         140.8134  136.1906  155.5915 C.ar    1  UNL1        0.0310
     33 C         141.3863  137.2756  156.4543 C.ar    1  UNL1        0.0183
@<TRIPOS>BOND
     1    17    18    2
     2    18    19    1
     3    18    15    1
     4    15    13    1
     5    13    14    2
     6    14     7    1
     7     7     8   ar
     8     8     9   ar
     9     9    10   ar
    10    10     1    1
    11     1     2   ar
    12     2     3   ar
    13     3     4   ar
    14     4    23    1
    15    23    24    2
    16    24    25    1
    17    25    27    1
    18    27    28   ar
    19    28    29   ar
    20    29    30   ar
    21    30    31    1
    22    30    32   ar
    23    32    33   ar
    24     4     5   ar
    25     5     6   ar
    26    10    11   ar
    27    11    12   ar
    28    12     7   ar
    29     6     1   ar
    30    33    27   ar
    31    17    20    1
    32    19    21    1
    33    19    22    1
    34    15    16    1
    35    25    26    1
@<TRIPOS>MOLECULE
*****
 33 35 0 0 0
SMALL
GASTEIGER

@<TRIPOS>ATOM
      1 C         140.9099  144.2188  162.6514 C.ar    1  UNL1        0.0000
      2 C         140.0507  145.3516  162.1733 C.ar    1  UNL1        0.0000
      3 C         140.1424  145.8132  160.7490 C.ar    1  UNL1        0.0016
      4 C         141.0933  145.1421  159.8028 C.ar    1  UNL1        0.0207
      5 C         141.9525  144.0093  160.2809 C.ar    1  UNL1        0.0016
      6 C         141.8608  143.5477  161.7052 C.ar    1  UNL1        0.0000
      7 C         140.6349  142.8340  166.9241 C.ar    1  UNL1        0.0222
      8 C         141.8249  142.4619  166.0902 C.ar    1  UNL1        0.0016
      9 C         141.9165  142.9235  164.6660 C.ar    1  UNL1        0.0001
     10 C         140.8182  143.7572  164.0756 C.ar    1  UNL1        0.0000
     11 C         139.6283  144.1293  164.9095 C.ar    1  UNL1        0.0001
     12 C         139.5366  143.6677  166.3338 C.ar    1  UNL1        0.0016
     13 N         140.0695  143.3162  169.4137 N.2     1  UNL1       -0.1091
     14 C         140.5432  142.3724  168.3484 C.2     1  UNL1        0.1359
     15 N         139.9778  142.8546  170.8379 N.pl3   1  UNL1       -0.1544
     16 H         139.2299  143.1523  171.4047 H       1  UNL1        0.2922
     17 N         140.6513  140.5595  171.8524 N.pl3   1  UNL1       -0.1280
     18 C         141.0257  141.9393  171.3986 C.cat   1  UNL1        0.3997
     19 N         142.4479  142.4038  171.5055 N.pl3   1  UNL1       -0.2876
     20 H         141.3390  139.9587  172.2204 H       1  UNL1        0.3062
     21 H         143.1356  141.8031  171.8734 H       1  UNL1        0.2547
     22 H         142.6936  143.3095  171.2076 H       1  UNL1        0.2547
     23 C         141.1850  145.6037  158.3786 C.2     1  UNL1        0.1175
     24 N         139.9558  145.6338  157.5193 N.2     1  UNL1       -0.1798
     25 N         140.0475  146.0954  156.0951 N.pl3   1  UNL1       -0.2359
     26 H         140.3678  145.4789  155.3975 H       1  UNL1        0.1744
     27 C         139.6513  147.4963  155.7337 C.ar    1  UNL1        0.0652
     28 C         140.1110  148.0951  154.4376 C.ar    1  UNL1        0.0183
     29 C         139.7147  149.4960  154.0762 C.ar    1  UNL1        0.0310
     30 C         138.8587  150.2981  155.0111 C.ar    1  UNL1        0.1402
     31 F         138.4624  151.6989  154.6498 F       1  UNL1       -0.2042
     32 C         138.3990  149.6992  156.3073 C.ar    1  UNL1        0.0310
     33 C         138.7953  148.2984  156.6686 C.ar    1  UNL1        0.0183
@<TRIPOS>BOND
     1    17    18    2
     2    18    19    1
     3    18    15    1
     4    15    13    1
     5    13    14    2
     6    14     7    1
     7     7     8   ar
     8     8     9   ar
     9     9    10   ar
    10    10     1    1
    11     1     2   ar
    12     2     3   ar
    13     3     4   ar
    14     4    23    1
    15    23    24    2
    16    24    25    1
    17    25    27    1
    18    27    28   ar
    19    28    29   ar
    20    29    30   ar
    21    30    31    1
    22    30    32   ar
    23    32    33   ar
    24     4     5   ar
    25     5     6   ar
    26    10    11   ar
    27    11    12   ar
    28    12     7   ar
    29     6     1   ar
    30    33    27   ar
    31    17    20    1
    32    19    21    1
    33    19    22    1
    34    15    16    1
    35    25    26    1
@<TRIPOS>MOLECULE
*****
 33 35 0 0 0
SMALL
GASTEIGER

@<TRIPOS>ATOM
      1 C         142.5584  139.1342  162.6671 C.ar    1  UNL1        0.0000
      2 C         141.5544  139.7420  161.7330 C.ar    1  UNL1        0.0000
      3 C         141.5390  139.3445  160.2867 C.ar    1  UNL1        0.0016
      4 C         142.5275  138.3394  159.7745 C.ar    1  UNL1        0.0207
      5 C         143.5315  137.7316  160.7086 C.ar    1  UNL1        0.0016
      6 C         143.5470  138.1291  162.1549 C.ar    1  UNL1        0.0000
      7 C         142.6048  140.3265  167.0060 C.ar    1  UNL1        0.0222
      8 C         142.9180  138.9132  166.6132 C.ar    1  UNL1        0.0016
      9 C         142.9025  138.5157  165.1669 C.ar    1  UNL1        0.0001
     10 C         142.5739  139.5316  164.1134 C.ar    1  UNL1        0.0000
     11 C         142.2608  140.9450  164.5062 C.ar    1  UNL1        0.0001
     12 C         142.2762  141.3424  165.9525 C.ar    1  UNL1        0.0016
     13 N         142.9511  139.7086  169.5057 N.2     1  UNL1       -0.1091
     14 C         142.6203  140.7239  168.4523 C.2     1  UNL1        0.1359
     15 N         142.9666  140.1060  170.9520 N.pl3   1  UNL1       -0.1544
     16 H         143.6368  139.7202  171.5613 H       1  UNL1        0.2922
     17 N         140.5980  140.6230  171.8861 N.pl3   1  UNL1       -0.1280
     18 C         141.9609  141.0912  171.4698 C.cat   1  UNL1        0.3997
     19 N         142.3182  142.5444  171.5715 N.pl3   1  UNL1       -0.2876
     20 H         139.9380  141.2696  172.2259 H       1  UNL1        0.3062
     21 H         141.6582  143.1910  171.9114 H       1  UNL1        0.2547
     22 H         143.2128  142.8517  171.2983 H       1  UNL1        0.2547
     23 C         142.5121  137.9419  158.3282 C.2     1  UNL1        0.1175
     24 N         143.0495  136.6049  157.9120 N.2     1  UNL1       -0.1798
     25 N         143.0341  136.2074  156.4657 N.pl3   1  UNL1       -0.2359
     26 H         143.2844  136.8607  155.7730 H       1  UNL1        0.1744
     27 C         142.6372  134.8147  156.0748 C.ar    1  UNL1        0.0652
     28 C         141.7999  134.5890  154.8509 C.ar    1  UNL1        0.0183
     29 C         141.4029  133.1962  154.4600 C.ar    1  UNL1        0.0310
     30 C         141.8433  132.0292  155.2931 C.ar    1  UNL1        0.1402
     31 F         141.4465  130.6365  154.9023 F       1  UNL1       -0.2042
     32 C         142.6807  132.2549  156.5171 C.ar    1  UNL1        0.0310
     33 C         143.0775  133.6476  156.9079 C.ar    1  UNL1        0.0183
@<TRIPOS>BOND
     1    17    18    2
     2    18    19    1
     3    18    15    1
     4    15    13    1
     5    13    14    2
     6    14     7    1
     7     7     8   ar
     8     8     9   ar
     9     9    10   ar
    10    10     1    1
    11     1     2   ar
    12     2     3   ar
    13     3     4   ar
    14     4    23    1
    15    23    24    2
    16    24    25    1
    17    25    27    1
    18    27    28   ar
    19    28    29   ar
    20    29    30   ar
    21    30    31    1
    22    30    32   ar
    23    32    33   ar
    24     4     5   ar
    25     5     6   ar
    26    10    11   ar
    27    11    12   ar
    28    12     7   ar
    29     6     1   ar
    30    33    27   ar
    31    17    20    1
    32    19    21    1
    33    19    22    1
    34    15    16    1
    35    25    26    1
@<TRIPOS>MOLECULE
*****
 33 35 0 0 0
SMALL
GASTEIGER

@<TRIPOS>ATOM
      1 C         142.7412  139.2953  162.5947 C.ar    1  UNL1        0.0000
      2 C         143.9764  139.5823  161.7936 C.ar    1  UNL1        0.0000
      3 C         144.0190  139.2423  160.3333 C.ar    1  UNL1        0.0016
      4 C         142.8265  138.6153  159.6740 C.ar    1  UNL1        0.0207
      5 C         141.5913  138.3283  160.4752 C.ar    1  UNL1        0.0016
      6 C         141.5486  138.6683  161.9355 C.ar    1  UNL1        0.0000
      7 C         142.6132  140.3152  166.9757 C.ar    1  UNL1        0.0222
      8 C         142.3458  141.3769  165.9504 C.ar    1  UNL1        0.0016
      9 C         142.3885  141.0369  164.4901 C.ar    1  UNL1        0.0001
     10 C         142.6985  139.6352  164.0551 C.ar    1  UNL1        0.0000
     11 C         142.9660  138.5736  165.0804 C.ar    1  UNL1        0.0001
     12 C         142.9233  138.9136  166.5407 C.ar    1  UNL1        0.0016
     13 N         142.9555  139.6262  169.4573 N.2     1  UNL1       -0.1091
     14 C         142.5706  140.6552  168.4361 C.2     1  UNL1        0.1359
     15 N         142.9129  139.9662  170.9176 N.pl3   1  UNL1       -0.1544
     16 H         143.5880  139.5936  171.5297 H       1  UNL1        0.2922
     17 N         142.1784  142.2813  171.8400 N.pl3   1  UNL1       -0.1280
     18 C         141.8416  140.8739  171.4453 C.cat   1  UNL1        0.3997
     19 N         140.4336  140.3742  171.5784 N.pl3   1  UNL1       -0.2876
     20 H         141.4753  142.8771  172.1863 H       1  UNL1        0.3062
     21 H         139.7305  140.9700  171.9248 H       1  UNL1        0.2547
     22 H         140.2126  139.4505  171.3194 H       1  UNL1        0.2547
     23 C         142.8691  138.2753  158.2137 C.2     1  UNL1        0.1175
     24 N         142.6307  136.8640  157.7649 N.2     1  UNL1       -0.1798
     25 N         142.6734  136.5240  156.3046 N.pl3   1  UNL1       -0.2359
     26 H         142.5145  137.2245  155.6313 H       1  UNL1        0.1744
     27 C         142.9580  135.1168  155.8702 C.ar    1  UNL1        0.0652
     28 C         142.3635  134.5898  154.5979 C.ar    1  UNL1        0.0183
     29 C         142.6481  133.1826  154.1634 C.ar    1  UNL1        0.0310
     30 C         143.5273  132.3023  155.0014 C.ar    1  UNL1        0.1402
     31 F         143.8119  130.8951  154.5670 F       1  UNL1       -0.2042
     32 C         144.1218  132.8293  156.2738 C.ar    1  UNL1        0.0310
     33 C         143.8372  134.2365  156.7081 C.ar    1  UNL1        0.0183
@<TRIPOS>BOND
     1    17    18    2
     2    18    19    1
     3    18    15    1
     4    15    13    1
     5    13    14    2
     6    14     7    1
     7     7     8   ar
     8     8     9   ar
     9     9    10   ar
    10    10     1    1
    11     1     2   ar
    12     2     3   ar
    13     3     4   ar
    14     4    23    1
    15    23    24    2
    16    24    25    1
    17    25    27    1
    18    27    28   ar
    19    28    29   ar
    20    29    30   ar
    21    30    31    1
    22    30    32   ar
    23    32    33   ar
    24     4     5   ar
    25     5     6   ar
    26    10    11   ar
    27    11    12   ar
    28    12     7   ar
    29     6     1   ar
    30    33    27   ar
    31    17    20    1
    32    19    21    1
    33    19    22    1
    34    15    16    1
    35    25    26    1
@<TRIPOS>MOLECULE
*****
 33 35 0 0 0
SMALL
GASTEIGER

@<TRIPOS>ATOM
      1 C         141.5166  139.0037  162.5849 C.ar    1  UNL1        0.0000
      2 C         140.3854  139.2111  161.6219 C.ar    1  UNL1        0.0000
      3 C         140.5516  138.8388  160.1783 C.ar    1  UNL1        0.0016
      4 C         141.8490  138.2593  159.6978 C.ar    1  UNL1        0.0207
      5 C         142.9801  138.0519  160.6608 C.ar    1  UNL1        0.0016
      6 C         142.8139  138.4241  162.1044 C.ar    1  UNL1        0.0000
      7 C         141.0180  140.1204  166.9155 C.ar    1  UNL1        0.0222
      8 C         139.9360  140.4436  165.9283 C.ar    1  UNL1        0.0016
      9 C         140.1021  140.0714  164.4848 C.ar    1  UNL1        0.0001
     10 C         141.3504  139.3760  164.0285 C.ar    1  UNL1        0.0000
     11 C         142.4324  139.0528  165.0157 C.ar    1  UNL1        0.0001
     12 C         142.2662  139.4250  166.4592 C.ar    1  UNL1        0.0016
     13 N         139.9730  139.6661  169.2504 N.2     1  UNL1       -0.1091
     14 C         140.8518  140.4927  168.3591 C.2     1  UNL1        0.1359
     15 N         139.8068  140.0383  170.6939 N.pl3   1  UNL1       -0.1544
     16 H         139.0214  139.7223  171.1965 H       1  UNL1        0.2922
     17 N         140.4695  142.2581  171.8702 N.pl3   1  UNL1       -0.1280
     18 C         140.8373  140.8920  171.3718 C.cat   1  UNL1        0.3997
     19 N         142.2356  140.3795  171.5512 N.pl3   1  UNL1       -0.2876
     20 H         141.1459  142.8183  172.3151 H       1  UNL1        0.3062
     21 H         142.9119  140.9397  171.9960 H       1  UNL1        0.2547
     22 H         142.4770  139.4829  171.2240 H       1  UNL1        0.2547
     23 C         142.0152  137.8870  158.2543 C.2     1  UNL1        0.1175
     24 N         143.3620  137.9933  157.6026 N.2     1  UNL1       -0.1798
     25 N         143.5282  137.6211  156.1591 N.pl3   1  UNL1       -0.2359
     26 H         143.7873  138.3058  155.5008 H       1  UNL1        0.1744
     27 C         143.2996  136.2055  155.7184 C.ar    1  UNL1        0.0652
     28 C         142.6399  135.9276  154.4003 C.ar    1  UNL1        0.0183
     29 C         142.4112  134.5121  153.9596 C.ar    1  UNL1        0.0310
     30 C         142.8423  133.3745  154.8372 C.ar    1  UNL1        0.1402
     31 F         142.6137  131.9591  154.3966 F       1  UNL1       -0.2042
     32 C         143.5021  133.6525  156.1554 C.ar    1  UNL1        0.0310
     33 C         143.7307  135.0680  156.5960 C.ar    1  UNL1        0.0183
@<TRIPOS>BOND
     1    17    18    2
     2    18    19    1
     3    18    15    1
     4    15    13    1
     5    13    14    2
     6    14     7    1
     7     7     8   ar
     8     8     9   ar
     9     9    10   ar
    10    10     1    1
    11     1     2   ar
    12     2     3   ar
    13     3     4   ar
    14     4    23    1
    15    23    24    2
    16    24    25    1
    17    25    27    1
    18    27    28   ar
    19    28    29   ar
    20    29    30   ar
    21    30    31    1
    22    30    32   ar
    23    32    33   ar
    24     4     5   ar
    25     5     6   ar
    26    10    11   ar
    27    11    12   ar
    28    12     7   ar
    29     6     1   ar
    30    33    27   ar
    31    17    20    1
    32    19    21    1
    33    19    22    1
    34    15    16    1
    35    25    26    1
@<TRIPOS>MOLECULE
*****
 33 35 0 0 0
SMALL
GASTEIGER

@<TRIPOS>ATOM
      1 C         140.1643  141.5861  164.8230 C.ar    1  UNL1        0.0000
      2 C         138.7755  141.0273  164.9171 C.ar    1  UNL1        0.0000
      3 C         137.9752  140.7932  163.6702 C.ar    1  UNL1        0.0016
      4 C         138.5637  141.1178  162.3293 C.ar    1  UNL1        0.0207
      5 C         139.9525  141.6766  162.2352 C.ar    1  UNL1        0.0016
      6 C         140.7528  141.9107  163.4820 C.ar    1  UNL1        0.0000
      7 C         142.5653  142.2884  168.5636 C.ar    1  UNL1        0.0222
      8 C         141.0738  142.1511  168.6444 C.ar    1  UNL1        0.0016
      9 C         140.2735  141.9170  167.3976 C.ar    1  UNL1        0.0001
     10 C         140.9646  141.8202  166.0699 C.ar    1  UNL1        0.0000
     11 C         142.4561  141.9574  165.9890 C.ar    1  UNL1        0.0001
     12 C         143.2564  142.1915  167.2359 C.ar    1  UNL1        0.0016
     13 N         144.7704  143.0391  169.7140 N.2     1  UNL1       -0.1091
     14 C         143.3656  142.5225  169.8105 C.2     1  UNL1        0.1359
     15 N         145.5708  143.2732  170.9609 N.pl3   1  UNL1       -0.1544
     16 H         145.6609  142.5565  171.6298 H       1  UNL1        0.2922
     17 N         147.7234  144.7243  171.0645 N.pl3   1  UNL1       -0.1280
     18 C         146.2338  144.5994  171.1886 C.cat   1  UNL1        0.3997
     19 N         145.4072  145.8006  171.5403 N.pl3   1  UNL1       -0.2876
     20 H         148.1586  145.5947  171.2139 H       1  UNL1        0.3062
     21 H         145.8423  146.6710  171.6898 H       1  UNL1        0.2547
     22 H         144.4295  145.7186  171.6218 H       1  UNL1        0.2547
     23 C         137.7634  140.8837  161.0824 C.2     1  UNL1        0.1175
     24 N         138.4229  140.3066  159.8651 N.2     1  UNL1       -0.1798
     25 N         137.6226  140.0725  158.6183 N.pl3   1  UNL1       -0.2359
     26 H         137.1996  139.1974  158.4619 H       1  UNL1        0.1744
     27 C         137.4669  141.1718  157.6096 C.ar    1  UNL1        0.0652
     28 C         138.3896  142.3540  157.6402 C.ar    1  UNL1        0.0183
     29 C         138.2338  143.4533  156.6315 C.ar    1  UNL1        0.0310
     30 C         137.1554  143.3703  155.5922 C.ar    1  UNL1        0.1402
     31 F         136.9996  144.4695  154.5836 F       1  UNL1       -0.2042
     32 C         136.2327  142.1880  155.5617 C.ar    1  UNL1        0.0310
     33 C         136.3884  141.0888  156.5703 C.ar    1  UNL1        0.0183
@<TRIPOS>BOND
     1    17    18    2
     2    18    19    1
     3    18    15    1
     4    15    13    1
     5    13    14    2
     6    14     7    1
     7     7     8   ar
     8     8     9   ar
     9     9    10   ar
    10    10     1    1
    11     1     2   ar
    12     2     3   ar
    13     3     4   ar
    14     4    23    1
    15    23    24    2
    16    24    25    1
    17    25    27    1
    18    27    28   ar
    19    28    29   ar
    20    29    30   ar
    21    30    31    1
    22    30    32   ar
    23    32    33   ar
    24     4     5   ar
    25     5     6   ar
    26    10    11   ar
    27    11    12   ar
    28    12     7   ar
    29     6     1   ar
    30    33    27   ar
    31    17    20    1
    32    19    21    1
    33    19    22    1
    34    15    16    1
    35    25    26    1
@<TRIPOS>MOLECULE
*****
 33 35 0 0 0
SMALL
GASTEIGER

@<TRIPOS>ATOM
      1 C         143.4759  141.2835  163.3065 C.ar    1  UNL1        0.0000
      2 C         144.0992  142.6355  163.1234 C.ar    1  UNL1        0.0000
      3 C         144.3017  143.1874  161.7434 C.ar    1  UNL1        0.0016
      4 C         143.8810  142.3873  160.5465 C.ar    1  UNL1        0.0207
      5 C         143.2577  141.0353  160.7295 C.ar    1  UNL1        0.0016
      6 C         143.0552  140.4834  162.1095 C.ar    1  UNL1        0.0000
      7 C         142.8684  139.6278  167.4465 C.ar    1  UNL1        0.0222
      8 C         142.5969  141.0770  167.1710 C.ar    1  UNL1        0.0016
      9 C         142.7994  141.6289  165.7910 C.ar    1  UNL1        0.0001
     10 C         143.2734  140.7316  164.6865 C.ar    1  UNL1        0.0000
     11 C         143.5450  139.2824  164.9619 C.ar    1  UNL1        0.0001
     12 C         143.3425  138.7305  166.3419 C.ar    1  UNL1        0.0016
     13 N         143.4939  137.9183  169.3002 N.2     1  UNL1       -0.1091
     14 C         142.6659  139.0759  168.8265 C.2     1  UNL1        0.1359
     15 N         143.2914  137.3664  170.6802 N.pl3   1  UNL1       -0.1544
     16 H         142.5547  137.7011  171.2410 H       1  UNL1        0.2922
     17 N         143.7310  135.3498  172.2582 N.pl3   1  UNL1       -0.1280
     18 C         144.2113  136.3045  171.2057 C.cat   1  UNL1        0.3997
     19 N         145.6116  136.1974  170.6787 N.pl3   1  UNL1       -0.2876
     20 H         144.3348  134.6529  172.6031 H       1  UNL1        0.3062
     21 H         146.2154  135.5004  171.0236 H       1  UNL1        0.2547
     22 H         145.9268  136.8240  169.9879 H       1  UNL1        0.2547
     23 C         144.0835  142.9392  159.1665 C.2     1  UNL1        0.1175
     24 N         144.0738  142.0191  157.9819 N.2     1  UNL1       -0.1798
     25 N         144.2763  142.5710  156.6019 N.pl3   1  UNL1       -0.2359
     26 H         143.5615  143.0929  156.1706 H       1  UNL1        0.1744
     27 C         145.5679  142.3278  155.8789 C.ar    1  UNL1        0.0652
     28 C         146.8690  142.4055  156.6211 C.ar    1  UNL1        0.0183
     29 C         148.1607  142.1622  155.8982 C.ar    1  UNL1        0.0310
     30 C         148.1511  141.8412  154.4329 C.ar    1  UNL1        0.1402
     31 F         149.4426  141.5980  153.7100 F       1  UNL1       -0.2042
     32 C         146.8498  141.7635  153.6907 C.ar    1  UNL1        0.0310
     33 C         145.5583  142.0068  154.4137 C.ar    1  UNL1        0.0183
@<TRIPOS>BOND
     1    17    18    2
     2    18    19    1
     3    18    15    1
     4    15    13    1
     5    13    14    2
     6    14     7    1
     7     7     8   ar
     8     8     9   ar
     9     9    10   ar
    10    10     1    1
    11     1     2   ar
    12     2     3   ar
    13     3     4   ar
    14     4    23    1
    15    23    24    2
    16    24    25    1
    17    25    27    1
    18    27    28   ar
    19    28    29   ar
    20    29    30   ar
    21    30    31    1
    22    30    32   ar
    23    32    33   ar
    24     4     5   ar
    25     5     6   ar
    26    10    11   ar
    27    11    12   ar
    28    12     7   ar
    29     6     1   ar
    30    33    27   ar
    31    17    20    1
    32    19    21    1
    33    19    22    1
    34    15    16    1
    35    25    26    1
@<TRIPOS>MOLECULE
*****
 33 35 0 0 0
SMALL
GASTEIGER

@<TRIPOS>ATOM
      1 C         141.6512  140.6166  165.5675 C.ar    1  UNL1        0.0000
      2 C         141.3177  139.8607  164.3156 C.ar    1  UNL1        0.0000
      3 C         142.1805  140.0091  163.0976 C.ar    1  UNL1        0.0016
      4 C         143.3768  140.9134  163.1315 C.ar    1  UNL1        0.0207
      5 C         143.7102  141.6693  164.3834 C.ar    1  UNL1        0.0016
      6 C         142.8474  141.5209  165.6014 C.ar    1  UNL1        0.0000
      7 C         139.0628  140.1714  169.2215 C.ar    1  UNL1        0.0222
      8 C         140.3413  140.9520  169.2987 C.ar    1  UNL1        0.0016
      9 C         141.2041  141.1004  168.0807 C.ar    1  UNL1        0.0001
     10 C         140.7884  140.4682  166.7855 C.ar    1  UNL1        0.0000
     11 C         139.5099  139.6875  166.7084 C.ar    1  UNL1        0.0001
     12 C         138.6471  139.5391  167.9264 C.ar    1  UNL1        0.0016
     13 N         137.0168  139.1014  170.4128 N.2     1  UNL1       -0.1091
     14 C         138.2000  140.0230  170.4396 C.2     1  UNL1        0.1359
     15 N         136.1540  138.9530  171.6308 N.pl3   1  UNL1       -0.1544
     16 H         135.6215  139.7159  171.9527 H       1  UNL1        0.2922
     17 N         134.9631  137.3441  173.2871 N.pl3   1  UNL1       -0.1280
     18 C         136.1026  137.6422  172.3583 C.cat   1  UNL1        0.3997
     19 N         137.1907  136.6296  172.1569 N.pl3   1  UNL1       -0.2876
     20 H         134.9294  136.4838  173.7646 H       1  UNL1        0.3062
     21 H         137.1570  135.7692  172.6344 H       1  UNL1        0.2547
     22 H         137.9386  136.8252  171.5473 H       1  UNL1        0.2547
     23 C         144.2396  141.0618  161.9135 C.2     1  UNL1        0.1175
     24 N         143.6741  141.6673  160.6631 N.2     1  UNL1       -0.1798
     25 N         144.5369  141.8157  159.4450 N.pl3   1  UNL1       -0.2359
     26 H         145.2595  142.4843  159.4321 H       1  UNL1        0.1744
     27 C         144.2988  140.9454  158.2467 C.ar    1  UNL1        0.0652
     28 C         145.1136  141.1425  157.0028 C.ar    1  UNL1        0.0183
     29 C         144.8755  140.2722  155.8045 C.ar    1  UNL1        0.0310
     30 C         143.8225  139.2049  155.8501 C.ar    1  UNL1        0.1402
     31 F         143.5844  138.3346  154.6518 F       1  UNL1       -0.2042
     32 C         143.0077  139.0078  157.0940 C.ar    1  UNL1        0.0310
     33 C         143.2459  139.8781  158.2923 C.ar    1  UNL1        0.0183
@<TRIPOS>BOND
     1    17    18    2
     2    18    19    1
     3    18    15    1
     4    15    13    1
     5    13    14    2
     6    14     7    1
     7     7     8   ar
     8     8     9   ar
     9     9    10   ar
    10    10     1    1
    11     1     2   ar
    12     2     3   ar
    13     3     4   ar
    14     4    23    1
    15    23    24    2
    16    24    25    1
    17    25    27    1
    18    27    28   ar
    19    28    29   ar
    20    29    30   ar
    21    30    31    1
    22    30    32   ar
    23    32    33   ar
    24     4     5   ar
    25     5     6   ar
    26    10    11   ar
    27    11    12   ar
    28    12     7   ar
    29     6     1   ar
    30    33    27   ar
    31    17    20    1
    32    19    21    1
    33    19    22    1
    34    15    16    1
    35    25    26    1
