@<TRIPOS>MOLECULE
*****
 33 38 0 0 0
SMALL
GASTEIGER

@<TRIPOS>ATOM
      1 C         138.9058  142.1557  161.7812 C.2     1  UNL1        0.0866
      2 N         138.0272  141.0733  161.2276 N.2     1  UNL1       -0.1523
      3 N         137.7313  140.1049  162.3343 N.2     1  UNL1       -0.1523
      4 C         138.4270  140.5890  163.5720 C.2     1  UNL1        0.0858
      5 C         139.1528  141.8564  163.2301 C.3     1  UNL1        0.0883
      6 C         139.8485  142.3404  164.4678 C.3     1  UNL1        0.0384
      7 C         139.5526  141.3721  165.5746 C.ar    1  UNL1       -0.0205
      8 C         139.9697  141.3362  167.0149 C.ar    1  UNL1       -0.0065
      9 C         139.5082  140.2179  167.9017 C.ar    1  UNL1        0.0019
     10 C         138.6297  139.1355  167.3480 C.ar    1  UNL1       -0.0023
     11 C         138.2126  139.1713  165.9076 C.ar    1  UNL1        0.0007
     12 C         138.6741  140.2897  165.0209 C.ar    1  UNL1        0.0117
     13 C         140.1086  144.7947  159.2016 C.ar    1  UNL1        0.0710
     14 C         139.4984  143.4634  159.5265 C.ar    1  UNL1        0.0165
     15 C         139.4429  143.3311  161.0197 C.ar    1  UNL1        0.0233
     16 C         140.0188  144.5805  161.6175 C.ar    1  UNL1        0.0373
     17 S         140.4303  145.4850  160.4939 S.2     1  UNL1       -0.0780
     18 C         140.5996  145.8849  156.4502 C.1     1  UNL1       -0.0388
     19 C         140.3541  145.3398  157.8259 C.1     1  UNL1       -0.0543
     20 C         140.8451  146.4301  155.0745 C.3     1  UNL1        0.2814
     21 O         139.7647  147.1921  154.3658 O.3     1  UNL1       -0.4612
     22 C         139.5915  148.6601  154.6209 C.ar    1  UNL1        0.1400
     23 C         140.3523  149.6588  153.8002 C.ar    1  UNL1        0.0369
     24 C         140.1791  151.1268  154.0553 C.ar    1  UNL1        0.0031
     25 C         139.2450  151.5960  155.1311 C.ar    1  UNL1        0.0002
     26 C         138.4842  150.5972  155.9518 C.ar    1  UNL1        0.0031
     27 C         138.6574  149.1293  155.6968 C.ar    1  UNL1        0.0369
     28 C         139.9252  140.1820  169.3421 C.3     1  UNL1        0.1556
     29 N         141.0149  141.0899  169.8303 N.ar    1  UNL1       -0.2255
     30 C         140.8301  142.3092  170.6843 C.ar    1  UNL1        0.1975
     31 N         142.1816  142.9108  170.9320 N.ar    1  UNL1       -0.2007
     32 C         143.2017  142.0635  170.2311 C.ar    1  UNL1        0.2210
     33 N         142.4806  140.9381  169.5502 N.ar    1  UNL1       -0.1448
@<TRIPOS>BOND
     1    18    19    3
     2    19    13    1
     3    13    14   ar
     4    14    15   ar
     5    15     1    1
     6     1     2    2
     7     2     3    1
     8     3     4    2
     9     4     5    1
    10     5     6    1
    11     6     7    1
    12     7     8   ar
    13     8     9   ar
    14     9    28    1
    15    28    29    1
    16    29    30   ar
    17    30    31   ar
    18    31    32   ar
    19    32    33   ar
    20     9    10   ar
    21    10    11   ar
    22    11    12   ar
    23    15    16   ar
    24    16    17   ar
    25    18    20    1
    26    20    21    1
    27    21    22    1
    28    22    23   ar
    29    23    24   ar
    30    24    25   ar
    31    25    26   ar
    32    26    27   ar
    33    17    13   ar
    34    27    22   ar
    35     5     1    1
    36    12     7   ar
    37    12     4    1
    38    33    29   ar
@<TRIPOS>MOLECULE
*****
 33 38 0 0 0
SMALL
GASTEIGER

@<TRIPOS>ATOM
      1 C         143.5412  141.9514  161.0756 C.2     1  UNL1        0.0866
      2 N         144.3148  143.2359  161.1128 N.2     1  UNL1       -0.1523
      3 N         144.4590  143.6489  162.5476 N.2     1  UNL1       -0.1523
      4 C         143.7744  142.6195  163.3973 C.2     1  UNL1        0.0858
      5 C         143.2072  141.5704  162.4875 C.3     1  UNL1        0.0883
      6 C         142.5227  140.5411  163.3371 C.3     1  UNL1        0.0384
      7 C         142.6668  140.9540  164.7720 C.ar    1  UNL1       -0.0205
      8 C         142.1935  140.3263  166.0494 C.ar    1  UNL1       -0.0065
      9 C         142.4939  140.9832  167.3640 C.ar    1  UNL1        0.0019
     10 C         143.2675  142.2677  167.4012 C.ar    1  UNL1       -0.0023
     11 C         143.7408  142.8955  166.1237 C.ar    1  UNL1        0.0007
     12 C         143.4404  142.2386  164.8091 C.ar    1  UNL1        0.0117
     13 C         142.8144  139.3637  158.2754 C.ar    1  UNL1        0.0710
     14 C         143.3077  139.7016  159.6512 C.ar    1  UNL1        0.0165
     15 C         143.1672  141.1827  159.8431 C.ar    1  UNL1        0.0233
     16 C         142.5870  141.7601  158.5861 C.ar    1  UNL1        0.0373
     17 S         142.3690  140.6358  157.6172 S.2     1  UNL1       -0.0780
     18 C         142.7329  136.6244  157.0549 C.1     1  UNL1       -0.0388
     19 C         142.7736  137.9941  157.6652 C.1     1  UNL1       -0.0543
     20 C         142.6921  135.2548  156.4446 C.3     1  UNL1        0.2814
     21 O         143.7104  134.2268  156.8402 O.3     1  UNL1       -0.4612
     22 C         143.8531  132.9660  156.0403 C.ar    1  UNL1        0.1400
     23 C         144.8027  131.8956  156.4904 C.ar    1  UNL1        0.0369
     24 C         144.9454  130.6347  155.6905 C.ar    1  UNL1        0.0031
     25 C         144.1386  130.4442  154.4405 C.ar    1  UNL1        0.0002
     26 C         143.1889  131.5146  153.9903 C.ar    1  UNL1        0.0031
     27 C         143.0462  132.7755  154.7902 C.ar    1  UNL1        0.0369
     28 C         142.0206  140.3555  168.6416 C.3     1  UNL1        0.1556
     29 N         141.2899  141.1822  169.6577 N.ar    1  UNL1       -0.2255
     30 C         141.4849  141.1276  171.1440 C.ar    1  UNL1        0.1975
     31 N         140.5514  142.1204  171.7708 N.ar    1  UNL1       -0.2007
     32 C         139.7795  142.7887  170.6720 C.ar    1  UNL1        0.2210
     33 N         140.2359  142.2089  169.3660 N.ar    1  UNL1       -0.1448
@<TRIPOS>BOND
     1    18    19    3
     2    19    13    1
     3    13    14   ar
     4    14    15   ar
     5    15     1    1
     6     1     2    2
     7     2     3    1
     8     3     4    2
     9     4     5    1
    10     5     6    1
    11     6     7    1
    12     7     8   ar
    13     8     9   ar
    14     9    28    1
    15    28    29    1
    16    29    30   ar
    17    30    31   ar
    18    31    32   ar
    19    32    33   ar
    20     9    10   ar
    21    10    11   ar
    22    11    12   ar
    23    15    16   ar
    24    16    17   ar
    25    18    20    1
    26    20    21    1
    27    21    22    1
    28    22    23   ar
    29    23    24   ar
    30    24    25   ar
    31    25    26   ar
    32    26    27   ar
    33    17    13   ar
    34    27    22   ar
    35     5     1    1
    36    12     7   ar
    37    12     4    1
    38    33    29   ar
@<TRIPOS>MOLECULE
*****
 33 38 0 0 0
SMALL
GASTEIGER

@<TRIPOS>ATOM
      1 C         138.7301  140.8538  158.8124 C.2     1  UNL1        0.0866
      2 N         138.4787  142.3322  158.7792 N.2     1  UNL1       -0.1523
      3 N         138.2768  142.7999  160.1901 N.2     1  UNL1       -0.1523
      4 C         138.4034  141.6104  161.0953 C.2     1  UNL1        0.0858
      5 C         138.6836  140.4077  160.2438 C.3     1  UNL1        0.0883
      6 C         138.8103  139.2184  161.1489 C.3     1  UNL1        0.0384
      7 C         138.6084  139.6859  162.5598 C.ar    1  UNL1       -0.0205
      8 C         138.6210  138.9565  163.8704 C.ar    1  UNL1       -0.0065
      9 C         138.3822  139.7055  165.1479 C.ar    1  UNL1        0.0019
     10 C         138.1308  141.1839  165.1147 C.ar    1  UNL1       -0.0023
     11 C         138.1181  141.9133  163.8041 C.ar    1  UNL1        0.0007
     12 C         138.3569  141.1643  162.5267 C.ar    1  UNL1        0.0117
     13 C         139.7033  138.1178  156.2370 C.ar    1  UNL1        0.0710
     14 C         139.6661  138.6400  157.6427 C.ar    1  UNL1        0.0165
     15 C         138.9836  139.9757  157.6230 C.ar    1  UNL1        0.0233
     16 C         138.5990  140.2789  156.2052 C.ar    1  UNL1        0.0373
     17 S         139.0438  139.1307  155.3486 S.2     1  UNL1       -0.0780
     18 C         140.8887  135.5062  155.3569 C.1     1  UNL1       -0.0388
     19 C         140.2960  136.8120  155.7970 C.1     1  UNL1       -0.0543
     20 C         141.4814  134.2004  154.9169 C.3     1  UNL1        0.2814
     21 O         141.4081  133.0024  155.8167 O.3     1  UNL1       -0.4612
     22 C         142.6352  132.5309  156.5391 C.ar    1  UNL1        0.1400
     23 C         143.5145  133.5184  157.2473 C.ar    1  UNL1        0.0369
     24 C         144.7416  133.0469  157.9698 C.ar    1  UNL1        0.0031
     25 C         145.0893  131.5879  157.9841 C.ar    1  UNL1        0.0002
     26 C         144.2100  130.6003  157.2759 C.ar    1  UNL1        0.0031
     27 C         142.9829  131.0718  156.5534 C.ar    1  UNL1        0.0369
     28 C         138.3948  138.9761  166.4586 C.3     1  UNL1        0.1556
     29 N         139.1449  139.5451  167.6263 N.ar    1  UNL1       -0.2255
     30 C         140.5549  140.0565  167.6040 C.ar    1  UNL1        0.1975
     31 N         140.8982  140.5300  168.9853 N.ar    1  UNL1       -0.2007
     32 C         139.7004  140.3113  169.8613 C.ar    1  UNL1        0.2210
     33 N         138.6168  139.7025  169.0214 N.ar    1  UNL1       -0.1448
@<TRIPOS>BOND
     1    18    19    3
     2    19    13    1
     3    13    14   ar
     4    14    15   ar
     5    15     1    1
     6     1     2    2
     7     2     3    1
     8     3     4    2
     9     4     5    1
    10     5     6    1
    11     6     7    1
    12     7     8   ar
    13     8     9   ar
    14     9    28    1
    15    28    29    1
    16    29    30   ar
    17    30    31   ar
    18    31    32   ar
    19    32    33   ar
    20     9    10   ar
    21    10    11   ar
    22    11    12   ar
    23    15    16   ar
    24    16    17   ar
    25    18    20    1
    26    20    21    1
    27    21    22    1
    28    22    23   ar
    29    23    24   ar
    30    24    25   ar
    31    25    26   ar
    32    26    27   ar
    33    17    13   ar
    34    27    22   ar
    35     5     1    1
    36    12     7   ar
    37    12     4    1
    38    33    29   ar
@<TRIPOS>MOLECULE
*****
 33 38 0 0 0
SMALL
GASTEIGER

@<TRIPOS>ATOM
      1 C         140.8390  144.2977  160.3406 C.2     1  UNL1        0.0866
      2 N         141.4550  145.3947  159.5238 N.2     1  UNL1       -0.1523
      3 N         140.8787  145.3224  158.1408 N.2     1  UNL1       -0.1523
      4 C         139.9065  144.1807  158.1028 C.2     1  UNL1        0.0858
      5 C         139.8820  143.5474  159.4624 C.3     1  UNL1        0.0883
      6 C         138.9098  142.4057  159.4244 C.3     1  UNL1        0.0384
      7 C         138.3335  142.3334  158.0414 C.ar    1  UNL1       -0.0205
      8 C         137.3275  141.4104  157.4203 C.ar    1  UNL1       -0.0065
      9 C         136.9374  141.5844  155.9824 C.ar    1  UNL1        0.0019
     10 C         137.5534  142.6814  155.1656 C.ar    1  UNL1       -0.0023
     11 C         138.5595  143.6044  155.7867 C.ar    1  UNL1        0.0007
     12 C         138.9495  143.4304  157.2246 C.ar    1  UNL1        0.0117
     13 C         141.6915  142.8278  163.8303 C.ar    1  UNL1        0.0710
     14 C         141.4875  142.6628  162.3534 C.ar    1  UNL1        0.0165
     15 C         141.1290  144.0028  161.7824 C.ar    1  UNL1        0.0233
     16 C         141.1114  144.9959  162.9064 C.ar    1  UNL1        0.0373
     17 S         141.4590  144.2698  164.1720 S.2     1  UNL1       -0.0780
     18 C         142.4341  140.6555  165.7615 C.1     1  UNL1       -0.0388
     19 C         142.0628  141.7417  164.7959 C.1     1  UNL1       -0.0543
     20 C         142.8054  139.5693  166.7271 C.3     1  UNL1        0.2814
     21 O         142.9445  139.8798  168.1880 O.3     1  UNL1       -0.4612
     22 C         141.9633  140.7965  168.8566 C.ar    1  UNL1        0.1400
     23 C         142.3439  142.2175  169.1495 C.ar    1  UNL1        0.0369
     24 C         141.3627  143.1342  169.8181 C.ar    1  UNL1        0.0031
     25 C         140.0009  142.6298  170.1938 C.ar    1  UNL1        0.0002
     26 C         139.6203  141.2087  169.9010 C.ar    1  UNL1        0.0031
     27 C         140.6015  140.2921  169.2324 C.ar    1  UNL1        0.0369
     28 C         135.9313  140.6613  155.3612 C.3     1  UNL1        0.1556
     29 N         134.5987  140.4533  156.0177 N.ar    1  UNL1       -0.2255
     30 C         133.3150  141.1321  155.6415 C.ar    1  UNL1        0.1975
     31 N         132.2387  140.6283  156.5569 N.ar    1  UNL1       -0.2007
     32 C         132.8572  139.6382  157.4987 C.ar    1  UNL1        0.2210
     33 N         134.3157  139.5300  157.1655 N.ar    1  UNL1       -0.1448
@<TRIPOS>BOND
     1    18    19    3
     2    19    13    1
     3    13    14   ar
     4    14    15   ar
     5    15     1    1
     6     1     2    2
     7     2     3    1
     8     3     4    2
     9     4     5    1
    10     5     6    1
    11     6     7    1
    12     7     8   ar
    13     8     9   ar
    14     9    28    1
    15    28    29    1
    16    29    30   ar
    17    30    31   ar
    18    31    32   ar
    19    32    33   ar
    20     9    10   ar
    21    10    11   ar
    22    11    12   ar
    23    15    16   ar
    24    16    17   ar
    25    18    20    1
    26    20    21    1
    27    21    22    1
    28    22    23   ar
    29    23    24   ar
    30    24    25   ar
    31    25    26   ar
    32    26    27   ar
    33    17    13   ar
    34    27    22   ar
    35     5     1    1
    36    12     7   ar
    37    12     4    1
    38    33    29   ar
@<TRIPOS>MOLECULE
*****
 33 38 0 0 0
SMALL
GASTEIGER

@<TRIPOS>ATOM
      1 C         139.0836  141.6983  160.7135 C.2     1  UNL1        0.0866
      2 N         138.0963  142.8274  160.7362 N.2     1  UNL1       -0.1523
      3 N         138.1237  143.4397  162.1053 N.2     1  UNL1       -0.1523
      4 C         139.1280  142.6891  162.9287 C.2     1  UNL1        0.0858
      5 C         139.7212  141.6129  162.0685 C.3     1  UNL1        0.0883
      6 C         140.7255  140.8623  162.8920 C.3     1  UNL1        0.0384
      7 C         140.7530  141.4746  164.2610 C.ar    1  UNL1       -0.0205
      8 C         141.5495  141.1499  165.4899 C.ar    1  UNL1       -0.0065
      9 C         141.3586  141.9543  166.7415 C.ar    1  UNL1        0.0019
     10 C         140.3713  143.0833  166.7642 C.ar    1  UNL1       -0.0023
     11 C         139.5748  143.4080  165.5353 C.ar    1  UNL1        0.0007
     12 C         139.7656  142.6036  164.2838 C.ar    1  UNL1        0.0117
     13 C         140.3949  139.1214  158.1240 C.ar    1  UNL1        0.0710
     14 C         140.4556  139.7659  159.4772 C.ar    1  UNL1        0.0165
     15 C         139.3811  140.8107  159.5415 C.ar    1  UNL1        0.0233
     16 C         138.6564  140.8118  158.2282 C.ar    1  UNL1        0.0373
     17 S         139.2830  139.7678  157.3521 S.2     1  UNL1       -0.0780
     18 C         142.1834  136.9251  157.1352 C.1     1  UNL1       -0.0388
     19 C         141.2891  138.0232  157.6296 C.1     1  UNL1       -0.0543
     20 C         143.0776  135.8270  156.6408 C.3     1  UNL1        0.2814
     21 O         142.5039  134.4774  156.3253 O.3     1  UNL1       -0.4612
     22 C         143.1956  133.2370  156.8080 C.ar    1  UNL1        0.1400
     23 C         144.4935  133.3434  157.5523 C.ar    1  UNL1        0.0369
     24 C         145.1852  132.1029  158.0350 C.ar    1  UNL1        0.0031
     25 C         144.5789  130.7561  157.7734 C.ar    1  UNL1        0.0002
     26 C         143.2809  130.6497  157.0291 C.ar    1  UNL1        0.0031
     27 C         142.5892  131.8901  156.5464 C.ar    1  UNL1        0.0369
     28 C         142.1551  141.6297  167.9705 C.3     1  UNL1        0.1556
     29 N         141.4537  141.2328  169.2356 N.ar    1  UNL1       -0.2255
     30 C         141.6085  141.8926  170.5738 C.ar    1  UNL1        0.1975
     31 N         140.7249  141.1741  171.5499 N.ar    1  UNL1       -0.2007
     32 C         140.0239  140.0702  170.8151 C.ar    1  UNL1        0.2210
     33 N         140.4743  140.1065  169.3847 N.ar    1  UNL1       -0.1448
@<TRIPOS>BOND
     1    18    19    3
     2    19    13    1
     3    13    14   ar
     4    14    15   ar
     5    15     1    1
     6     1     2    2
     7     2     3    1
     8     3     4    2
     9     4     5    1
    10     5     6    1
    11     6     7    1
    12     7     8   ar
    13     8     9   ar
    14     9    28    1
    15    28    29    1
    16    29    30   ar
    17    30    31   ar
    18    31    32   ar
    19    32    33   ar
    20     9    10   ar
    21    10    11   ar
    22    11    12   ar
    23    15    16   ar
    24    16    17   ar
    25    18    20    1
    26    20    21    1
    27    21    22    1
    28    22    23   ar
    29    23    24   ar
    30    24    25   ar
    31    25    26   ar
    32    26    27   ar
    33    17    13   ar
    34    27    22   ar
    35     5     1    1
    36    12     7   ar
    37    12     4    1
    38    33    29   ar
@<TRIPOS>MOLECULE
*****
 33 38 0 0 0
SMALL
GASTEIGER

@<TRIPOS>ATOM
      1 C         142.0354  138.8525  161.3798 C.2     1  UNL1        0.0866
      2 N         141.4149  137.5167  161.6633 N.2     1  UNL1       -0.1523
      3 N         141.2076  137.4068  163.1449 N.2     1  UNL1       -0.1523
      4 C         141.7001  138.6749  163.7770 C.2     1  UNL1        0.0858
      5 C         142.2117  139.5684  162.6861 C.3     1  UNL1        0.0883
      6 C         142.7042  140.8364  163.3183 C.3     1  UNL1        0.0384
      7 C         142.4969  140.7266  164.7998 C.ar    1  UNL1       -0.0205
      8 C         142.7931  141.6705  165.9274 C.ar    1  UNL1       -0.0065
      9 C         142.4688  141.2785  167.3384 C.ar    1  UNL1        0.0019
     10 C         141.8482  139.9426  167.6219 C.ar    1  UNL1       -0.0023
     11 C         141.5520  138.9988  166.4944 C.ar    1  UNL1        0.0007
     12 C         141.8764  139.3908  165.0834 C.ar    1  UNL1        0.0117
     13 C         143.6762  140.3685  158.2056 C.ar    1  UNL1        0.0710
     14 C         143.7377  139.9762  159.6521 C.ar    1  UNL1        0.0165
     15 C         142.4134  139.3800  160.0274 C.ar    1  UNL1        0.0233
     16 C         141.5334  139.4039  158.8129 C.ar    1  UNL1        0.0373
     17 S         142.3138  140.0148  157.6870 S.2     1  UNL1       -0.0780
     18 C         145.8892  141.6378  156.6271 C.1     1  UNL1       -0.0388
     19 C         144.7827  141.0032  157.4164 C.1     1  UNL1       -0.0543
     20 C         146.9957  142.2724  155.8379 C.3     1  UNL1        0.2814
     21 O         148.1484  141.4402  155.3594 O.3     1  UNL1       -0.4612
     22 C         149.2880  142.0868  154.6292 C.ar    1  UNL1        0.1400
     23 C         150.7023  141.7703  155.0157 C.ar    1  UNL1        0.0369
     24 C         151.8420  142.4168  154.2855 C.ar    1  UNL1        0.0031
     25 C         151.5673  143.3799  153.1688 C.ar    1  UNL1        0.0002
     26 C         150.1529  143.6964  152.7823 C.ar    1  UNL1        0.0031
     27 C         149.0132  143.0499  153.5124 C.ar    1  UNL1        0.0369
     28 C         142.7649  142.2224  168.4660 C.3     1  UNL1        0.1556
     29 N         141.7708  142.4015  169.5749 N.ar    1  UNL1       -0.2255
     30 C         141.9141  141.8921  170.9784 C.ar    1  UNL1        0.1975
     31 N         140.6906  142.2973  171.7458 N.ar    1  UNL1       -0.2007
     32 C         139.7911  143.0571  170.8166 C.ar    1  UNL1        0.2210
     33 N         140.4587  143.1216  169.4749 N.ar    1  UNL1       -0.1448
@<TRIPOS>BOND
     1    18    19    3
     2    19    13    1
     3    13    14   ar
     4    14    15   ar
     5    15     1    1
     6     1     2    2
     7     2     3    1
     8     3     4    2
     9     4     5    1
    10     5     6    1
    11     6     7    1
    12     7     8   ar
    13     8     9   ar
    14     9    28    1
    15    28    29    1
    16    29    30   ar
    17    30    31   ar
    18    31    32   ar
    19    32    33   ar
    20     9    10   ar
    21    10    11   ar
    22    11    12   ar
    23    15    16   ar
    24    16    17   ar
    25    18    20    1
    26    20    21    1
    27    21    22    1
    28    22    23   ar
    29    23    24   ar
    30    24    25   ar
    31    25    26   ar
    32    26    27   ar
    33    17    13   ar
    34    27    22   ar
    35     5     1    1
    36    12     7   ar
    37    12     4    1
    38    33    29   ar
@<TRIPOS>MOLECULE
*****
 33 38 0 0 0
SMALL
GASTEIGER

@<TRIPOS>ATOM
      1 C         142.1368  141.9694  161.1757 C.2     1  UNL1        0.0866
      2 N         142.8781  140.9067  160.4201 N.2     1  UNL1       -0.1523
      3 N         143.3480  139.8788  161.4064 N.2     1  UNL1       -0.1523
      4 C         142.8971  140.3064  162.7717 C.2     1  UNL1        0.0858
      5 C         142.1486  141.5985  162.6291 C.3     1  UNL1        0.0883
      6 C         141.6977  142.0260  163.9943 C.3     1  UNL1        0.0384
      7 C         142.1676  140.9983  164.9807 C.ar    1  UNL1       -0.0205
      8 C         142.0162  140.8928  166.4693 C.ar    1  UNL1       -0.0065
      9 C         142.6061  139.7246  167.2022 C.ar    1  UNL1        0.0019
     10 C         143.3475  138.6619  166.4466 C.ar    1  UNL1       -0.0023
     11 C         143.4988  138.7673  164.9580 C.ar    1  UNL1        0.0007
     12 C         142.9089  139.9355  164.2251 C.ar    1  UNL1        0.0117
     13 C         140.5365  144.7489  158.9896 C.ar    1  UNL1        0.0710
     14 C         141.1619  143.3931  159.1342 C.ar    1  UNL1        0.0165
     15 C         141.4962  143.1890  160.5822 C.ar    1  UNL1        0.0233
     16 C         141.0775  144.4186  161.3324 C.ar    1  UNL1        0.0373
     17 S         140.4844  145.3826  160.3481 S.2     1  UNL1       -0.0780
     18 C         139.5613  145.9771  156.4322 C.1     1  UNL1       -0.0388
     19 C         140.0489  145.3630  157.7109 C.1     1  UNL1       -0.0543
     20 C         139.0736  146.5913  155.1535 C.3     1  UNL1        0.2814
     21 O         139.9297  147.5837  154.4239 O.3     1  UNL1       -0.4612
     22 C         139.5722  149.0403  154.4438 C.ar    1  UNL1        0.1400
     23 C         140.0108  149.9356  153.3231 C.ar    1  UNL1        0.0369
     24 C         139.6532  151.3923  153.3430 C.ar    1  UNL1        0.0031
     25 C         138.8572  151.9536  154.4836 C.ar    1  UNL1        0.0002
     26 C         138.4185  151.0583  155.6044 C.ar    1  UNL1        0.0031
     27 C         138.7761  149.6017  155.5845 C.ar    1  UNL1        0.0369
     28 C         142.4548  139.6192  168.6909 C.3     1  UNL1        0.1556
     29 N         141.2218  140.1515  169.3590 N.ar    1  UNL1       -0.2255
     30 C         141.1839  141.1859  170.4446 C.ar    1  UNL1        0.1975
     31 N         139.7488  141.4165  170.8153 N.ar    1  UNL1       -0.2007
     32 C         138.8997  140.5246  169.9588 C.ar    1  UNL1        0.2210
     33 N         139.8101  139.7428  169.0587 N.ar    1  UNL1       -0.1448
@<TRIPOS>BOND
     1    18    19    3
     2    19    13    1
     3    13    14   ar
     4    14    15   ar
     5    15     1    1
     6     1     2    2
     7     2     3    1
     8     3     4    2
     9     4     5    1
    10     5     6    1
    11     6     7    1
    12     7     8   ar
    13     8     9   ar
    14     9    28    1
    15    28    29    1
    16    29    30   ar
    17    30    31   ar
    18    31    32   ar
    19    32    33   ar
    20     9    10   ar
    21    10    11   ar
    22    11    12   ar
    23    15    16   ar
    24    16    17   ar
    25    18    20    1
    26    20    21    1
    27    21    22    1
    28    22    23   ar
    29    23    24   ar
    30    24    25   ar
    31    25    26   ar
    32    26    27   ar
    33    17    13   ar
    34    27    22   ar
    35     5     1    1
    36    12     7   ar
    37    12     4    1
    38    33    29   ar
@<TRIPOS>MOLECULE
*****
 33 38 0 0 0
SMALL
GASTEIGER

@<TRIPOS>ATOM
      1 C         140.3287  144.4921  159.1281 C.2     1  UNL1        0.0866
      2 N         140.9563  145.3816  158.0962 N.2     1  UNL1       -0.1523
      3 N         140.3587  145.0392  156.7637 N.2     1  UNL1       -0.1523
      4 C         139.3617  143.9380  156.9721 C.2     1  UNL1        0.0858
      5 C         139.3432  143.5999  158.4334 C.3     1  UNL1        0.0883
      6 C         138.3462  142.4987  158.6417 C.3     1  UNL1        0.0384
      7 C         137.7485  142.1562  157.3092 C.ar    1  UNL1       -0.0205
      8 C         136.7139  141.1493  156.9022 C.ar    1  UNL1       -0.0065
      9 C         136.3070  141.0319  155.4633 C.ar    1  UNL1        0.0019
     10 C         136.9346  141.9215  154.4314 C.ar    1  UNL1       -0.0023
     11 C         137.9692  142.9284  154.8384 C.ar    1  UNL1        0.0007
     12 C         138.3762  143.0458  156.2773 C.ar    1  UNL1        0.0117
     13 C         141.3451  143.7901  162.8078 C.ar    1  UNL1        0.0710
     14 C         141.2060  143.3506  161.3803 C.ar    1  UNL1        0.0165
     15 C         140.6331  144.4944  160.5969 C.ar    1  UNL1        0.0233
     16 C         140.4182  145.6407  161.5401 C.ar    1  UNL1        0.0373
     17 S         140.8582  145.2055  162.9065 S.2     1  UNL1       -0.0780
     18 C         142.4101  142.1299  165.0682 C.1     1  UNL1       -0.0388
     19 C         141.8776  142.9600  163.9380 C.1     1  UNL1       -0.0543
     20 C         142.9426  141.2998  166.1984 C.3     1  UNL1        0.2814
     21 O         142.0019  140.4966  167.0471 O.3     1  UNL1       -0.4612
     22 C         140.9321  139.6668  166.4015 C.ar    1  UNL1        0.1400
     23 C         141.3053  138.5797  165.4377 C.ar    1  UNL1        0.0369
     24 C         140.2355  137.7498  164.7921 C.ar    1  UNL1        0.0031
     25 C         138.7924  138.0070  165.1103 C.ar    1  UNL1        0.0002
     26 C         138.4191  139.0941  166.0741 C.ar    1  UNL1        0.0031
     27 C         139.4889  139.9240  166.7197 C.ar    1  UNL1        0.0369
     28 C         135.2723  140.0250  155.0562 C.3     1  UNL1        0.1556
     29 N         134.0089  139.8841  155.8523 N.ar    1  UNL1       -0.2255
     30 C         132.8956  140.8868  155.9242 C.ar    1  UNL1        0.1975
     31 N         131.8355  140.3382  156.8327 N.ar    1  UNL1       -0.2007
     32 C         132.2936  138.9964  157.3223 C.ar    1  UNL1        0.2210
     33 N         133.6368  138.7158  156.7164 N.ar    1  UNL1       -0.1448
@<TRIPOS>BOND
     1    18    19    3
     2    19    13    1
     3    13    14   ar
     4    14    15   ar
     5    15     1    1
     6     1     2    2
     7     2     3    1
     8     3     4    2
     9     4     5    1
    10     5     6    1
    11     6     7    1
    12     7     8   ar
    13     8     9   ar
    14     9    28    1
    15    28    29    1
    16    29    30   ar
    17    30    31   ar
    18    31    32   ar
    19    32    33   ar
    20     9    10   ar
    21    10    11   ar
    22    11    12   ar
    23    15    16   ar
    24    16    17   ar
    25    18    20    1
    26    20    21    1
    27    21    22    1
    28    22    23   ar
    29    23    24   ar
    30    24    25   ar
    31    25    26   ar
    32    26    27   ar
    33    17    13   ar
    34    27    22   ar
    35     5     1    1
    36    12     7   ar
    37    12     4    1
    38    33    29   ar
@<TRIPOS>MOLECULE
*****
 33 38 0 0 0
SMALL
GASTEIGER

@<TRIPOS>ATOM
      1 C         142.2815  137.0734  156.9763 C.2     1  UNL1        0.0866
      2 N         141.4109  137.3971  155.7984 N.2     1  UNL1       -0.1523
      3 N         141.1547  136.1240  155.0476 N.2     1  UNL1       -0.1523
      4 C         141.8670  135.0135  155.7614 C.2     1  UNL1        0.0858
      5 C         142.5634  135.6003  156.9533 C.3     1  UNL1        0.0883
      6 C         143.2757  134.4898  157.6671 C.3     1  UNL1        0.0384
      7 C         143.0196  133.2167  156.9163 C.ar    1  UNL1       -0.0205
      8 C         143.4666  131.8046  157.1529 C.ar    1  UNL1       -0.0065
      9 C         143.0431  130.7162  156.2118 C.ar    1  UNL1        0.0019
     10 C         142.1724  131.0399  155.0339 C.ar    1  UNL1       -0.0023
     11 C         141.7254  132.4520  154.7973 C.ar    1  UNL1        0.0007
     12 C         142.1489  133.5404  155.7385 C.ar    1  UNL1        0.0117
     13 C         143.4886  139.0318  160.1024 C.ar    1  UNL1        0.0710
     14 C         142.9726  137.7782  159.4603 C.ar    1  UNL1        0.0165
     15 C         142.7823  138.0511  157.9976 C.ar    1  UNL1        0.0233
     16 C         143.1806  139.4733  157.7358 C.ar    1  UNL1        0.0373
     17 S         143.6172  140.0794  159.0366 S.2     1  UNL1       -0.0780
     18 C         144.1478  139.3822  163.0080 C.1     1  UNL1       -0.0388
     19 C         143.8182  139.2070  161.5552 C.1     1  UNL1       -0.0543
     20 C         144.4774  139.5574  164.4608 C.3     1  UNL1        0.2814
     21 O         143.7698  138.7331  165.4952 O.3     1  UNL1       -0.4612
     22 C         142.2707  138.6854  165.5193 C.ar    1  UNL1        0.1400
     23 C         141.5013  139.6886  166.3264 C.ar    1  UNL1        0.0369
     24 C         140.0023  139.6410  166.3505 C.ar    1  UNL1        0.0031
     25 C         139.2726  138.5901  165.5674 C.ar    1  UNL1        0.0002
     26 C         140.0420  137.5868  164.7603 C.ar    1  UNL1        0.0031
     27 C         141.5411  137.6344  164.7362 C.ar    1  UNL1        0.0369
     28 C         143.4901  129.3040  156.4484 C.3     1  UNL1        0.1556
     29 N         143.3358  128.6861  157.8064 N.ar    1  UNL1       -0.2255
     30 C         144.1934  128.9656  159.0049 C.ar    1  UNL1        0.1975
     31 N         143.6845  128.1324  160.1437 N.ar    1  UNL1       -0.2007
     32 C         142.5122  127.3379  159.6490 C.ar    1  UNL1        0.2210
     33 N         142.2968  127.6801  158.2045 N.ar    1  UNL1       -0.1448
@<TRIPOS>BOND
     1    18    19    3
     2    19    13    1
     3    13    14   ar
     4    14    15   ar
     5    15     1    1
     6     1     2    2
     7     2     3    1
     8     3     4    2
     9     4     5    1
    10     5     6    1
    11     6     7    1
    12     7     8   ar
    13     8     9   ar
    14     9    28    1
    15    28    29    1
    16    29    30   ar
    17    30    31   ar
    18    31    32   ar
    19    32    33   ar
    20     9    10   ar
    21    10    11   ar
    22    11    12   ar
    23    15    16   ar
    24    16    17   ar
    25    18    20    1
    26    20    21    1
    27    21    22    1
    28    22    23   ar
    29    23    24   ar
    30    24    25   ar
    31    25    26   ar
    32    26    27   ar
    33    17    13   ar
    34    27    22   ar
    35     5     1    1
    36    12     7   ar
    37    12     4    1
    38    33    29   ar
