@<TRIPOS>MOLECULE
*****
 31 35 0 0 0
SMALL
GASTEIGER

@<TRIPOS>ATOM
      1 O         143.6929  142.5598  167.7231 O.2     1  UNL1       -0.2258
      2 C         142.7163  142.7300  166.5974 C.2     1  UNL1        0.4086
      3 O         143.0223  143.2968  165.2427 O.3     1  UNL1       -0.4398
      4 C         141.7572  143.2803  164.4368 C.3     1  UNL1        0.1561
      5 C         142.9412  143.8363  163.7026 C.3     1  UNL1        0.0425
      6 C         142.7904  144.3131  162.2884 C.3     1  UNL1        0.0160
      7 C         141.4558  144.2339  161.6084 C.3     1  UNL1        0.1122
      8 C         140.2718  143.6779  162.3426 C.3     1  UNL1        0.0160
      9 C         140.4226  143.2011  163.7568 C.3     1  UNL1        0.0425
     10 C         140.6694  142.7034  165.2934 C.3     1  UNL1        0.1415
     11 N         141.2621  142.3632  166.6287 N.am    1  UNL1       -0.2200
     12 C         141.3051  144.7107  160.1942 C.2     1  UNL1        0.3506
     13 N         140.1499  145.4955  159.6467 N.2     1  UNL1       -0.0350
     14 C         140.4140  145.7562  158.1933 C.2     1  UNL1        0.2348
     15 C         139.6243  146.4810  157.1440 C.2     1  UNL1        0.0869
     16 C         140.1531  146.5821  155.7438 C.2     1  UNL1        0.1468
     17 C         141.4714  145.9585  155.3931 C.2     1  UNL1        0.0200
     18 C         142.2611  145.2337  156.4425 C.3     1  UNL1        0.1068
     19 C         141.7324  145.1326  157.8426 C.2     1  UNL1        0.2176
     20 N         142.2831  144.4865  159.0792 N.2     1  UNL1       -0.0389
     21 O         139.3634  147.3068  154.6944 O.2     1  UNL1       -0.4047
     22 C         139.5448  148.7839  154.5060 C.3     1  UNL1        0.5753
     23 F         139.7262  150.2608  154.3175 F       1  UNL1       -0.1328
     24 F         140.6150  148.5225  153.4880 F       1  UNL1       -0.1328
     25 F         138.4746  149.0452  155.5239 F       1  UNL1       -0.1328
     26 C         140.5293  141.7619  167.7912 C.ar    1  UNL1        0.0762
     27 C         140.3541  142.5494  169.0557 C.ar    1  UNL1        0.0182
     28 C         139.6212  141.9481  170.2183 C.ar    1  UNL1        0.0220
     29 C         139.0637  140.5593  170.1162 C.ar    1  UNL1        0.0990
     30 N         139.2390  139.7718  168.8516 N.ar    1  UNL1       -0.2410
     31 C         139.9718  140.3732  167.6891 C.ar    1  UNL1        0.1138
@<TRIPOS>BOND
     1     1     2    2
     2     2     3    1
     3     3     4    1
     4     4     5    1
     5     5     6    1
     6     6     7    1
     7     7    12    1
     8    12    13    2
     9    13    14    1
    10    14    15    2
    11    15    16    1
    12    16    21    1
    13    21    22    1
    14    22    23    1
    15    22    24    1
    16    22    25    1
    17    16    17    2
    18    17    18    1
    19    18    19    1
    20    19    20    2
    21     7     8    1
    22     8     9    1
    23     4    10    1
    24    10    11    1
    25    11    26    1
    26    26    27   ar
    27    27    28   ar
    28    28    29   ar
    29    29    30   ar
    30    30    31   ar
    31    11     2   am
    32    31    26   ar
    33     9     4    1
    34    20    12    1
    35    19    14    1
@<TRIPOS>MOLECULE
*****
 31 35 0 0 0
SMALL
GASTEIGER

@<TRIPOS>ATOM
      1 O         138.5039  143.5161  155.4911 O.2     1  UNL1       -0.2258
      2 C         139.1419  144.0463  156.7409 C.2     1  UNL1        0.4086
      3 O         139.2908  143.3061  158.0371 O.3     1  UNL1       -0.4398
      4 C         139.9840  144.2121  159.0112 C.3     1  UNL1        0.1561
      5 C         139.6392  142.8638  159.5709 C.3     1  UNL1        0.0425
      6 C         139.9911  142.5286  160.9900 C.3     1  UNL1        0.0160
      7 C         140.6877  143.5417  161.8493 C.3     1  UNL1        0.1122
      8 C         141.0324  144.8899  161.2896 C.3     1  UNL1        0.0160
      9 C         140.6806  145.2251  159.8705 C.3     1  UNL1        0.0425
     10 C         140.2636  145.5121  158.3169 C.3     1  UNL1        0.1415
     11 N         139.7432  145.4096  156.9139 N.am    1  UNL1       -0.2200
     12 C         141.0395  143.2065  163.2685 C.2     1  UNL1        0.3506
     13 N         140.0676  142.9892  164.3901 N.2     1  UNL1       -0.0350
     14 C         140.8524  142.6781  165.6299 C.2     1  UNL1        0.2348
     15 C         140.4286  142.3753  167.0366 C.2     1  UNL1        0.0869
     16 C         141.4620  142.0975  168.0879 C.2     1  UNL1        0.1468
     17 C         142.9190  142.1224  167.7325 C.2     1  UNL1        0.0200
     18 C         143.3428  142.4252  166.3258 C.3     1  UNL1        0.1068
     19 C         142.3096  142.7031  165.2745 C.2     1  UNL1        0.2176
     20 N         142.4252  143.0296  163.8151 N.2     1  UNL1       -0.0389
     21 O         141.0381  141.7946  169.4945 O.2     1  UNL1       -0.4047
     22 C         139.7263  141.1145  169.7526 C.3     1  UNL1        0.5753
     23 F         138.4145  140.4344  170.0107 F       1  UNL1       -0.1328
     24 F         139.1920  142.3765  170.3623 F       1  UNL1       -0.1328
     25 F         140.2606  139.8525  169.1429 F       1  UNL1       -0.1328
     26 C         139.8119  146.4821  155.8675 C.ar    1  UNL1        0.0762
     27 C         139.0488  147.7602  156.0522 C.ar    1  UNL1        0.0182
     28 C         139.1175  148.8327  155.0058 C.ar    1  UNL1        0.0220
     29 C         139.9494  148.6272  153.7747 C.ar    1  UNL1        0.0990
     30 N         140.7126  147.3490  153.5899 N.ar    1  UNL1       -0.2410
     31 C         140.6438  146.2766  154.6364 C.ar    1  UNL1        0.1138
@<TRIPOS>BOND
     1     1     2    2
     2     2     3    1
     3     3     4    1
     4     4     5    1
     5     5     6    1
     6     6     7    1
     7     7    12    1
     8    12    13    2
     9    13    14    1
    10    14    15    2
    11    15    16    1
    12    16    21    1
    13    21    22    1
    14    22    23    1
    15    22    24    1
    16    22    25    1
    17    16    17    2
    18    17    18    1
    19    18    19    1
    20    19    20    2
    21     7     8    1
    22     8     9    1
    23     4    10    1
    24    10    11    1
    25    11    26    1
    26    26    27   ar
    27    27    28   ar
    28    28    29   ar
    29    29    30   ar
    30    30    31   ar
    31    11     2   am
    32    31    26   ar
    33     9     4    1
    34    20    12    1
    35    19    14    1
@<TRIPOS>MOLECULE
*****
 31 35 0 0 0
SMALL
GASTEIGER

@<TRIPOS>ATOM
      1 O         142.9764  138.9273  169.1612 O.2     1  UNL1       -0.2258
      2 C         142.5502  139.4580  167.8246 C.2     1  UNL1        0.4086
      3 O         142.9949  138.9415  166.4882 O.3     1  UNL1       -0.4398
      4 C         142.3241  139.7627  165.4273 C.3     1  UNL1        0.1561
      5 C         143.2232  138.6889  164.8902 C.3     1  UNL1        0.0425
      6 C         143.3834  138.5164  163.4088 C.3     1  UNL1        0.0160
      7 C         142.6446  139.4178  162.4645 C.3     1  UNL1        0.1122
      8 C         141.7455  140.4916  163.0016 C.3     1  UNL1        0.0160
      9 C         141.5852  140.6641  164.4830 C.3     1  UNL1        0.0425
     10 C         141.4648  140.7867  166.1079 C.3     1  UNL1        0.1415
     11 N         141.6046  140.5984  167.5894 N.am    1  UNL1       -0.2200
     12 C         142.8049  139.2453  160.9831 C.2     1  UNL1        0.3506
     13 N         142.4124  138.0349  160.1888 N.2     1  UNL1       -0.0350
     14 C         142.7507  138.2944  158.7507 C.2     1  UNL1        0.2348
     15 C         142.5887  137.4597  157.5150 C.2     1  UNL1        0.0869
     16 C         143.0284  137.9957  156.1848 C.2     1  UNL1        0.1468
     17 C         143.6301  139.3665  156.0903 C.2     1  UNL1        0.0200
     18 C         143.7921  140.2012  157.3260 C.3     1  UNL1        0.1068
     19 C         143.3524  139.6653  158.6562 C.2     1  UNL1        0.2176
     20 N         143.3859  140.2529  160.0359 N.2     1  UNL1       -0.0389
     21 O         142.8664  137.1609  154.9491 O.2     1  UNL1       -0.4047
     22 C         143.1969  135.6981  154.9836 C.3     1  UNL1        0.5753
     23 F         143.5272  134.2354  155.0180 F       1  UNL1       -0.1328
     24 F         141.7706  135.3683  154.6568 F       1  UNL1       -0.1328
     25 F         144.6231  136.0280  155.3104 F       1  UNL1       -0.1328
     26 C         140.9191  141.4082  168.6497 C.ar    1  UNL1        0.0762
     27 C         141.2727  142.8541  168.8349 C.ar    1  UNL1        0.0182
     28 C         140.5871  143.6639  169.8952 C.ar    1  UNL1        0.0220
     29 C         139.5480  143.0279  170.7703 C.ar    1  UNL1        0.0990
     30 N         139.1944  141.5820  170.5850 N.ar    1  UNL1       -0.2410
     31 C         139.8799  140.7722  169.5247 C.ar    1  UNL1        0.1138
@<TRIPOS>BOND
     1     1     2    2
     2     2     3    1
     3     3     4    1
     4     4     5    1
     5     5     6    1
     6     6     7    1
     7     7    12    1
     8    12    13    2
     9    13    14    1
    10    14    15    2
    11    15    16    1
    12    16    21    1
    13    21    22    1
    14    22    23    1
    15    22    24    1
    16    22    25    1
    17    16    17    2
    18    17    18    1
    19    18    19    1
    20    19    20    2
    21     7     8    1
    22     8     9    1
    23     4    10    1
    24    10    11    1
    25    11    26    1
    26    26    27   ar
    27    27    28   ar
    28    28    29   ar
    29    29    30   ar
    30    30    31   ar
    31    11     2   am
    32    31    26   ar
    33     9     4    1
    34    20    12    1
    35    19    14    1
@<TRIPOS>MOLECULE
*****
 31 35 0 0 0
SMALL
GASTEIGER

@<TRIPOS>ATOM
      1 O         137.5396  138.7572  168.4665 O.2     1  UNL1       -0.2258
      2 C         138.4547  139.1444  167.3429 C.2     1  UNL1        0.4086
      3 O         138.4111  138.6043  165.9442 O.3     1  UNL1       -0.4398
      4 C         139.5037  139.2659  165.1575 C.3     1  UNL1        0.1561
      5 C         138.6931  138.2817  164.3675 C.3     1  UNL1        0.0425
      6 C         139.0110  138.0372  162.9221 C.3     1  UNL1        0.0160
      7 C         140.1395  138.7770  162.2668 C.3     1  UNL1        0.1122
      8 C         140.9500  139.7612  163.0569 C.3     1  UNL1        0.0160
      9 C         140.6321  140.0057  164.5022 C.3     1  UNL1        0.0425
     10 C         140.2225  140.2149  166.0702 C.3     1  UNL1        0.1415
     11 N         139.5742  140.1399  167.4208 N.am    1  UNL1       -0.2200
     12 C         140.4573  138.5325  160.8214 C.2     1  UNL1        0.3506
     13 N         141.7597  138.0231  160.2789 N.2     1  UNL1       -0.0350
     14 C         141.6359  137.9302  158.7870 C.2     1  UNL1        0.2348
     15 C         142.6007  137.4925  157.7250 C.2     1  UNL1        0.0869
     16 C         142.1864  137.5068  156.2834 C.2     1  UNL1        0.1468
     17 C         140.8075  137.9588  155.9037 C.2     1  UNL1        0.0200
     18 C         139.8427  138.3965  156.9657 C.3     1  UNL1        0.1068
     19 C         140.2569  138.3822  158.4072 C.2     1  UNL1        0.2176
     20 N         139.5286  138.7544  159.6646 N.2     1  UNL1       -0.0389
     21 O         143.1511  137.0690  155.2215 O.2     1  UNL1       -0.4047
     22 C         143.1221  135.6563  154.7180 C.3     1  UNL1        0.5753
     23 F         143.0930  134.2436  154.2146 F       1  UNL1       -0.1328
     24 F         144.0410  135.2416  155.8286 F       1  UNL1       -0.1328
     25 F         142.2031  136.0710  153.6074 F       1  UNL1       -0.1328
     26 C         139.9750  140.9227  168.6358 C.ar    1  UNL1        0.0762
     27 C         140.3501  142.3692  168.5060 C.ar    1  UNL1        0.0182
     28 C         140.7510  143.1521  169.7211 C.ar    1  UNL1        0.0220
     29 C         140.7767  142.4884  171.0660 C.ar    1  UNL1        0.0990
     30 N         140.4016  141.0418  171.1959 N.ar    1  UNL1       -0.2410
     31 C         140.0008  140.2590  169.9807 C.ar    1  UNL1        0.1138
@<TRIPOS>BOND
     1     1     2    2
     2     2     3    1
     3     3     4    1
     4     4     5    1
     5     5     6    1
     6     6     7    1
     7     7    12    1
     8    12    13    2
     9    13    14    1
    10    14    15    2
    11    15    16    1
    12    16    21    1
    13    21    22    1
    14    22    23    1
    15    22    24    1
    16    22    25    1
    17    16    17    2
    18    17    18    1
    19    18    19    1
    20    19    20    2
    21     7     8    1
    22     8     9    1
    23     4    10    1
    24    10    11    1
    25    11    26    1
    26    26    27   ar
    27    27    28   ar
    28    28    29   ar
    29    29    30   ar
    30    30    31   ar
    31    11     2   am
    32    31    26   ar
    33     9     4    1
    34    20    12    1
    35    19    14    1
@<TRIPOS>MOLECULE
*****
 31 35 0 0 0
SMALL
GASTEIGER

@<TRIPOS>ATOM
      1 O         143.7343  139.2461  155.8926 O.2     1  UNL1       -0.2258
      2 C         143.3689  138.7509  157.2605 C.2     1  UNL1        0.4086
      3 O         143.4401  139.5422  158.5329 O.3     1  UNL1       -0.4398
      4 C         142.9834  138.6577  159.6550 C.3     1  UNL1        0.1561
      5 C         143.3731  140.0401  160.0876 C.3     1  UNL1        0.0425
      6 C         143.2853  140.4258  161.5345 C.3     1  UNL1        0.0160
      7 C         142.8077  139.4291  162.5487 C.3     1  UNL1        0.1122
      8 C         142.4180  138.0468  162.1161 C.3     1  UNL1        0.0160
      9 C         142.5058  137.6611  160.6692 C.3     1  UNL1        0.0425
     10 C         142.6299  137.3198  159.0761 C.3     1  UNL1        0.1415
     11 N         142.8681  137.3773  157.5963 N.am    1  UNL1       -0.2200
     12 C         142.7199  139.8149  163.9956 C.2     1  UNL1        0.3506
     13 N         142.3966  141.1802  164.5261 N.2     1  UNL1       -0.0350
     14 C         142.4169  141.1122  166.0244 C.2     1  UNL1        0.2348
     15 C         142.1729  142.1499  167.0796 C.2     1  UNL1        0.0869
     16 C         142.2648  141.7803  168.5305 C.2     1  UNL1        0.1468
     17 C         142.6007  140.3729  168.9261 C.2     1  UNL1        0.0200
     18 C         142.8447  139.3352  167.8708 C.3     1  UNL1        0.1068
     19 C         142.7528  139.7048  166.4200 C.2     1  UNL1        0.2176
     20 N         142.9401  138.9031  165.1662 N.2     1  UNL1       -0.0389
     21 O         142.0208  142.8180  169.5858 O.2     1  UNL1       -0.4047
     22 C         140.6558  142.9670  170.1898 C.3     1  UNL1        0.5753
     23 F         139.2910  143.1159  170.7938 F       1  UNL1       -0.1328
     24 F         141.0147  141.9658  171.2475 F       1  UNL1       -0.1328
     25 F         140.2970  143.9681  169.1320 F       1  UNL1       -0.1328
     26 C         142.6449  136.2580  156.6232 C.ar    1  UNL1        0.0762
     27 C         141.3732  136.1960  155.8302 C.ar    1  UNL1        0.0182
     28 C         141.1499  135.0766  154.8570 C.ar    1  UNL1        0.0220
     29 C         142.1983  134.0191  154.6768 C.ar    1  UNL1        0.0990
     30 N         143.4701  134.0810  155.4698 N.ar    1  UNL1       -0.2410
     31 C         143.6933  135.2005  156.4430 C.ar    1  UNL1        0.1138
@<TRIPOS>BOND
     1     1     2    2
     2     2     3    1
     3     3     4    1
     4     4     5    1
     5     5     6    1
     6     6     7    1
     7     7    12    1
     8    12    13    2
     9    13    14    1
    10    14    15    2
    11    15    16    1
    12    16    21    1
    13    21    22    1
    14    22    23    1
    15    22    24    1
    16    22    25    1
    17    16    17    2
    18    17    18    1
    19    18    19    1
    20    19    20    2
    21     7     8    1
    22     8     9    1
    23     4    10    1
    24    10    11    1
    25    11    26    1
    26    26    27   ar
    27    27    28   ar
    28    28    29   ar
    29    29    30   ar
    30    30    31   ar
    31    11     2   am
    32    31    26   ar
    33     9     4    1
    34    20    12    1
    35    19    14    1
@<TRIPOS>MOLECULE
*****
 31 35 0 0 0
SMALL
GASTEIGER

@<TRIPOS>ATOM
      1 O         137.6820  138.4659  167.4935 O.2     1  UNL1       -0.2258
      2 C         138.4344  139.4754  166.6783 C.2     1  UNL1        0.4086
      3 O         138.1628  139.8320  165.2468 O.3     1  UNL1       -0.4398
      4 C         139.1512  140.8827  164.8352 C.3     1  UNL1        0.1561
      5 C         138.1949  140.4860  163.7498 C.3     1  UNL1        0.0425
      6 C         138.2850  141.1306  162.3984 C.3     1  UNL1        0.0160
      7 C         139.3314  142.1720  162.1325 C.3     1  UNL1        0.1122
      8 C         140.2876  142.5687  163.2179 C.3     1  UNL1        0.0160
      9 C         140.1975  141.9241  164.5693 C.3     1  UNL1        0.0425
     10 C         140.0336  141.1754  166.0124 C.3     1  UNL1        0.1415
     11 N         139.5907  140.3058  167.1515 N.am    1  UNL1       -0.2200
     12 C         139.4214  142.8167  160.7810 C.2     1  UNL1        0.3506
     13 N         140.1464  144.0894  160.4578 N.2     1  UNL1       -0.0350
     14 C         139.9754  144.3611  158.9926 C.2     1  UNL1        0.2348
     15 C         140.4687  145.4718  158.1134 C.2     1  UNL1        0.0869
     16 C         140.1313  145.4776  156.6518 C.2     1  UNL1        0.1468
     17 C         139.3006  144.3728  156.0695 C.2     1  UNL1        0.0200
     18 C         138.8072  143.2621  156.9487 C.3     1  UNL1        0.1068
     19 C         139.1446  143.2562  158.4102 C.2     1  UNL1        0.2176
     20 N         138.8023  142.3017  159.5155 N.2     1  UNL1       -0.0389
     21 O         140.6246  146.5883  155.7727 O.2     1  UNL1       -0.4047
     22 C         139.6566  147.5884  155.2133 C.3     1  UNL1        0.5753
     23 F         138.6887  148.5885  154.6540 F       1  UNL1       -0.1328
     24 F         140.2878  147.4427  153.8605 F       1  UNL1       -0.1328
     25 F         139.0254  147.7342  156.5662 F       1  UNL1       -0.1328
     26 C         140.1974  140.2723  168.5228 C.ar    1  UNL1        0.0762
     27 C         141.6510  139.9432  168.6920 C.ar    1  UNL1        0.0182
     28 C         142.2577  139.9097  170.0634 C.ar    1  UNL1        0.0220
     29 C         141.4108  140.2052  171.2657 C.ar    1  UNL1        0.0990
     30 N         139.9571  140.5343  171.0965 N.ar    1  UNL1       -0.2410
     31 C         139.3504  140.5678  169.7250 C.ar    1  UNL1        0.1138
@<TRIPOS>BOND
     1     1     2    2
     2     2     3    1
     3     3     4    1
     4     4     5    1
     5     5     6    1
     6     6     7    1
     7     7    12    1
     8    12    13    2
     9    13    14    1
    10    14    15    2
    11    15    16    1
    12    16    21    1
    13    21    22    1
    14    22    23    1
    15    22    24    1
    16    22    25    1
    17    16    17    2
    18    17    18    1
    19    18    19    1
    20    19    20    2
    21     7     8    1
    22     8     9    1
    23     4    10    1
    24    10    11    1
    25    11    26    1
    26    26    27   ar
    27    27    28   ar
    28    28    29   ar
    29    29    30   ar
    30    30    31   ar
    31    11     2   am
    32    31    26   ar
    33     9     4    1
    34    20    12    1
    35    19    14    1
@<TRIPOS>MOLECULE
*****
 31 35 0 0 0
SMALL
GASTEIGER

@<TRIPOS>ATOM
      1 O         139.0184  139.6483  168.9263 O.2     1  UNL1       -0.2258
      2 C         139.4744  140.1642  167.5937 C.2     1  UNL1        0.4086
      3 O         138.9335  139.7522  166.2565 O.3     1  UNL1       -0.4398
      4 C         139.6762  140.5160  165.2006 C.3     1  UNL1        0.1561
      5 C         138.6340  139.5829  164.6593 C.3     1  UNL1        0.0425
      6 C         138.4152  139.4806  163.1789 C.3     1  UNL1        0.0160
      7 C         139.2385  140.3115  162.2398 C.3     1  UNL1        0.1122
      8 C         140.2806  141.2447  162.7812 C.3     1  UNL1        0.0160
      9 C         140.4994  141.3470  164.2616 C.3     1  UNL1        0.0425
     10 C         140.6761  141.4002  165.8851 C.3     1  UNL1        0.1415
     11 N         140.5515  141.1827  167.3640 N.am    1  UNL1       -0.2200
     12 C         139.0196  140.2092  160.7594 C.2     1  UNL1        0.3506
     13 N         137.9931  140.9617  159.9658 N.2     1  UNL1       -0.0350
     14 C         138.1279  140.5540  158.5286 C.2     1  UNL1        0.2348
     15 C         137.3834  140.9676  157.2938 C.2     1  UNL1        0.0869
     16 C         137.7489  140.3767  155.9644 C.2     1  UNL1        0.1468
     17 C         138.8589  139.3723  155.8698 C.2     1  UNL1        0.0200
     18 C         139.6034  138.9586  157.1045 C.3     1  UNL1        0.1068
     19 C         139.2379  139.5495  158.4339 C.2     1  UNL1        0.2176
     20 N         139.7890  139.3364  159.8126 N.2     1  UNL1       -0.0389
     21 O         137.0044  140.7904  154.7296 O.2     1  UNL1       -0.4047
     22 C         135.5257  140.5581  154.6323 C.3     1  UNL1        0.5753
     23 F         134.0470  140.3259  154.5351 F       1  UNL1       -0.1328
     24 F         135.2822  142.0248  154.8312 F       1  UNL1       -0.1328
     25 F         135.7691  139.0914  154.4335 F       1  UNL1       -0.1328
     26 C         141.3615  141.8641  168.4267 C.ar    1  UNL1        0.0762
     27 C         142.7930  141.4728  168.6451 C.ar    1  UNL1        0.0182
     28 C         143.6031  142.1542  169.7078 C.ar    1  UNL1        0.0220
     29 C         142.9817  143.2270  170.5522 C.ar    1  UNL1        0.0990
     30 N         141.5501  143.6184  170.3339 N.ar    1  UNL1       -0.2410
     31 C         140.7401  142.9369  169.2711 C.ar    1  UNL1        0.1138
@<TRIPOS>BOND
     1     1     2    2
     2     2     3    1
     3     3     4    1
     4     4     5    1
     5     5     6    1
     6     6     7    1
     7     7    12    1
     8    12    13    2
     9    13    14    1
    10    14    15    2
    11    15    16    1
    12    16    21    1
    13    21    22    1
    14    22    23    1
    15    22    24    1
    16    22    25    1
    17    16    17    2
    18    17    18    1
    19    18    19    1
    20    19    20    2
    21     7     8    1
    22     8     9    1
    23     4    10    1
    24    10    11    1
    25    11    26    1
    26    26    27   ar
    27    27    28   ar
    28    28    29   ar
    29    29    30   ar
    30    30    31   ar
    31    11     2   am
    32    31    26   ar
    33     9     4    1
    34    20    12    1
    35    19    14    1
@<TRIPOS>MOLECULE
*****
 31 35 0 0 0
SMALL
GASTEIGER

@<TRIPOS>ATOM
      1 O         139.9869  146.9029  156.0012 O.2     1  UNL1       -0.2258
      2 C         139.9078  145.7846  156.9978 C.2     1  UNL1        0.4086
      3 O         140.3986  145.8299  158.4147 O.3     1  UNL1       -0.4398
      4 C         140.1182  144.4980  159.0451 C.3     1  UNL1        0.1561
      5 C         140.7868  145.4786  159.9624 C.3     1  UNL1        0.0425
      6 C         141.1131  145.0843  161.3724 C.3     1  UNL1        0.0160
      7 C         140.7708  143.7095  161.8650 C.3     1  UNL1        0.1122
      8 C         140.1022  142.7289  160.9478 C.3     1  UNL1        0.0160
      9 C         139.7759  143.1232  159.5378 C.3     1  UNL1        0.0425
     10 C         139.4542  143.6296  158.0179 C.3     1  UNL1        0.1415
     11 N         139.3242  144.4247  156.7527 N.am    1  UNL1       -0.2200
     12 C         141.0971  143.3153  163.2751 C.2     1  UNL1        0.3506
     13 N         140.1055  143.0594  164.3710 N.2     1  UNL1       -0.0350
     14 C         140.8679  142.6937  165.6100 C.2     1  UNL1        0.2348
     15 C         140.4191  142.3374  166.9962 C.2     1  UNL1        0.0869
     16 C         141.4332  142.0109  168.0522 C.2     1  UNL1        0.1468
     17 C         142.8961  142.0408  167.7219 C.2     1  UNL1        0.0200
     18 C         143.3449  142.3971  166.3357 C.3     1  UNL1        0.1068
     19 C         142.3308  142.7235  165.2797 C.2     1  UNL1        0.2176
     20 N         142.4725  143.1077  163.8367 N.2     1  UNL1       -0.0389
     21 O         140.9844  141.6546  169.4384 O.2     1  UNL1       -0.4047
     22 C         140.1428  142.6157  170.2245 C.3     1  UNL1        0.5753
     23 F         139.3011  143.5767  171.0106 F       1  UNL1       -0.1328
     24 F         139.0430  141.5979  170.2914 F       1  UNL1       -0.1328
     25 F         141.2425  143.6335  170.1576 F       1  UNL1       -0.1328
     26 C         138.7171  143.9444  155.4680 C.ar    1  UNL1        0.0762
     27 C         137.3827  144.4684  155.0269 C.ar    1  UNL1        0.0182
     28 C         136.7756  143.9880  153.7421 C.ar    1  UNL1        0.0220
     29 C         137.5030  142.9836  152.8983 C.ar    1  UNL1        0.0990
     30 N         138.8376  142.4595  153.3394 N.ar    1  UNL1       -0.2410
     31 C         139.4446  142.9399  154.6242 C.ar    1  UNL1        0.1138
@<TRIPOS>BOND
     1     1     2    2
     2     2     3    1
     3     3     4    1
     4     4     5    1
     5     5     6    1
     6     6     7    1
     7     7    12    1
     8    12    13    2
     9    13    14    1
    10    14    15    2
    11    15    16    1
    12    16    21    1
    13    21    22    1
    14    22    23    1
    15    22    24    1
    16    22    25    1
    17    16    17    2
    18    17    18    1
    19    18    19    1
    20    19    20    2
    21     7     8    1
    22     8     9    1
    23     4    10    1
    24    10    11    1
    25    11    26    1
    26    26    27   ar
    27    27    28   ar
    28    28    29   ar
    29    29    30   ar
    30    30    31   ar
    31    11     2   am
    32    31    26   ar
    33     9     4    1
    34    20    12    1
    35    19    14    1
@<TRIPOS>MOLECULE
*****
 31 35 0 0 0
SMALL
GASTEIGER

@<TRIPOS>ATOM
      1 O         137.5942  138.7092  168.1793 O.2     1  UNL1       -0.2258
      2 C         138.5038  139.1340  167.0648 C.2     1  UNL1        0.4086
      3 O         138.4801  138.6106  165.6592 O.3     1  UNL1       -0.4398
      4 C         139.5584  139.3100  164.8858 C.3     1  UNL1        0.1561
      5 C         138.7770  138.3151  164.0799 C.3     1  UNL1        0.0425
      6 C         139.1072  138.0971  162.6330 C.3     1  UNL1        0.0160
      7 C         140.2188  138.8740  161.9921 C.3     1  UNL1        0.1122
      8 C         141.0003  139.8688  162.7981 C.3     1  UNL1        0.0160
      9 C         140.6701  140.0868  164.2449 C.3     1  UNL1        0.0425
     10 C         140.2486  140.2657  165.8134 C.3     1  UNL1        0.1415
     11 N         139.5968  140.1569  167.1600 N.am    1  UNL1       -0.2200
     12 C         140.5490  138.6559  160.5452 C.2     1  UNL1        0.3506
     13 N         139.6085  138.8317  159.3900 N.2     1  UNL1       -0.0350
     14 C         140.3559  138.5083  158.1304 C.2     1  UNL1        0.2348
     15 C         139.9407  138.5073  156.6890 C.2     1  UNL1        0.0869
     16 C         140.9279  138.1306  155.6243 C.2     1  UNL1        0.1468
     17 C         142.3304  137.7548  156.0010 C.2     1  UNL1        0.0200
     18 C         142.7456  137.7558  157.4424 C.3     1  UNL1        0.1068
     19 C         141.7585  138.1325  158.5071 C.2     1  UNL1        0.2176
     20 N         141.8778  138.2238  159.9995 N.2     1  UNL1       -0.0389
     21 O         140.5127  138.1296  154.1830 O.2     1  UNL1       -0.4047
     22 C         139.2206  137.4859  153.7751 C.3     1  UNL1        0.5753
     23 F         137.9286  136.8423  153.3673 F       1  UNL1       -0.1328
     24 F         138.6206  138.8402  153.5386 F       1  UNL1       -0.1328
     25 F         139.8206  136.1317  154.0116 F       1  UNL1       -0.1328
     26 C         139.9721  140.9345  168.3865 C.ar    1  UNL1        0.0762
     27 C         140.3196  142.3894  168.2750 C.ar    1  UNL1        0.0182
     28 C         140.6949  143.1670  169.5016 C.ar    1  UNL1        0.0220
     29 C         140.7227  142.4898  170.8397 C.ar    1  UNL1        0.0990
     30 N         140.3752  141.0348  170.9513 N.ar    1  UNL1       -0.2410
     31 C         139.9999  140.2572  169.7246 C.ar    1  UNL1        0.1138
@<TRIPOS>BOND
     1     1     2    2
     2     2     3    1
     3     3     4    1
     4     4     5    1
     5     5     6    1
     6     6     7    1
     7     7    12    1
     8    12    13    2
     9    13    14    1
    10    14    15    2
    11    15    16    1
    12    16    21    1
    13    21    22    1
    14    22    23    1
    15    22    24    1
    16    22    25    1
    17    16    17    2
    18    17    18    1
    19    18    19    1
    20    19    20    2
    21     7     8    1
    22     8     9    1
    23     4    10    1
    24    10    11    1
    25    11    26    1
    26    26    27   ar
    27    27    28   ar
    28    28    29   ar
    29    29    30   ar
    30    30    31   ar
    31    11     2   am
    32    31    26   ar
    33     9     4    1
    34    20    12    1
    35    19    14    1
