@<TRIPOS>MOLECULE
*****
 30 33 0 0 0
SMALL
GASTEIGER

@<TRIPOS>ATOM
      1 C         138.1009  142.7842  161.6745 C.2     1  UNL1        0.4054
      2 O         138.1512  142.6860  160.1786 O.2     1  UNL1       -0.2262
      3 N         138.1426  141.5388  162.5097 N.am    1  UNL1       -0.2354
      4 C         138.1007  141.4803  164.0079 C.3     1  UNL1        0.1405
      5 C         138.1657  140.0387  164.4175 C.3     1  UNL1        0.1879
      6 C         138.2479  139.2064  163.1722 C.3     1  UNL1        0.0746
      7 C         138.2336  140.1336  161.9932 C.3     1  UNL1        0.1587
      8 C         138.2988  139.7268  160.5509 C.2     1  UNL1        0.2440
      9 O         137.0929  139.8824  159.6725 O.2     1  UNL1       -0.2731
     10 N         139.5699  139.1643  159.9870 N.am    1  UNL1       -0.2767
     11 C         140.7148  139.0510  160.9494 C.3     1  UNL1        0.0949
     12 C         142.1005  138.5349  160.6979 C.3     1  UNL1        0.0388
     13 C         142.6837  138.0048  159.4215 C.3     1  UNL1        0.0739
     14 N         142.0251  137.8598  158.0817 N.3     1  UNL1       -0.2725
     15 C         140.6207  138.2090  157.6872 C.3     1  UNL1        0.0938
     16 C         139.5280  138.7897  158.5352 C.3     1  UNL1        0.1107
     17 C         142.8846  137.2901  156.9922 C.3     1  UNL1        0.0576
     18 C         143.6736  137.8653  155.8536 C.3     1  UNL1        0.0160
     19 C         144.1000  136.4845  155.4516 C.3     1  UNL1        0.0028
     20 C         143.3109  135.9093  156.5903 C.3     1  UNL1        0.0160
     21 C         139.2526  144.8115  162.8206 C.3     1  UNL1        0.2573
     22 O         138.0089  144.1277  162.3353 O.3     1  UNL1       -0.4304
     23 O         138.1512  139.5205  165.8250 O.3     1  UNL1       -0.4773
     24 C         139.3702  139.6594  166.6881 C.ar    1  UNL1        0.1386
     25 C         140.7366  139.5749  166.0751 C.ar    1  UNL1        0.0392
     26 C         141.9556  139.7139  166.9380 C.ar    1  UNL1        0.0327
     27 C         141.8082  139.9373  168.4140 C.ar    1  UNL1        0.1403
     28 F         143.0272  140.0763  169.2770 F       1  UNL1       -0.2042
     29 C         140.4418  140.0218  169.0269 C.ar    1  UNL1        0.0327
     30 C         139.2228  139.8828  168.1639 C.ar    1  UNL1        0.0392
@<TRIPOS>BOND
     1    21    22    1
     2    22     1    1
     3     1     2    2
     4     1     3   am
     5     3     4    1
     6     4     5    1
     7     5    23    1
     8    23    24    1
     9    24    25   ar
    10    25    26   ar
    11    26    27   ar
    12    27    28    1
    13    27    29   ar
    14    29    30   ar
    15     5     6    1
    16     6     7    1
    17     7     8    1
    18     8     9    2
    19     8    10   am
    20    10    11    1
    21    11    12    1
    22    12    13    1
    23    13    14    1
    24    14    17    1
    25    17    18    1
    26    18    19    1
    27    19    20    1
    28    14    15    1
    29    15    16    1
    30     7     3    1
    31    16    10    1
    32    30    24   ar
    33    20    17    1
@<TRIPOS>MOLECULE
*****
 30 33 0 0 0
SMALL
GASTEIGER

@<TRIPOS>ATOM
      1 C         142.1977  141.1466  158.0416 C.2     1  UNL1        0.4054
      2 O         141.0288  141.6440  158.8392 O.2     1  UNL1       -0.2262
      3 N         142.2832  139.6985  157.6596 N.am    1  UNL1       -0.2354
      4 C         143.3854  139.0590  156.8684 C.3     1  UNL1        0.1405
      5 C         143.0650  137.6011  156.7216 C.3     1  UNL1        0.1879
      6 C         141.7646  137.3395  157.4222 C.3     1  UNL1        0.0746
      7 C         141.2815  138.6358  158.0019 C.3     1  UNL1        0.1587
      8 C         140.0184  138.8345  158.7862 C.2     1  UNL1        0.2440
      9 O         138.7516  139.2216  158.0824 O.2     1  UNL1       -0.2731
     10 N         140.0221  138.6460  160.2743 N.am    1  UNL1       -0.2767
     11 C         141.3396  138.2594  160.8781 C.3     1  UNL1        0.0949
     12 C         141.6682  138.0004  162.3185 C.3     1  UNL1        0.0388
     13 C         140.7603  138.0639  163.5110 C.3     1  UNL1        0.0739
     14 N         139.2997  138.4021  163.5574 N.3     1  UNL1       -0.2725
     15 C         138.3862  138.7604  162.4229 C.3     1  UNL1        0.0938
     16 C         138.7077  138.8689  160.9617 C.3     1  UNL1        0.1107
     17 C         138.6692  138.3790  164.9183 C.3     1  UNL1        0.0576
     18 C         138.1613  139.4215  165.8697 C.3     1  UNL1        0.0160
     19 C         137.7776  138.3464  166.8428 C.3     1  UNL1        0.0028
     20 C         138.2856  137.3039  165.8913 C.3     1  UNL1        0.0160
     21 C         144.3966  142.4238  158.5738 C.3     1  UNL1        0.2573
     22 O         143.2811  142.0971  157.6258 O.3     1  UNL1       -0.4304
     23 O         143.8985  136.5833  156.0008 O.3     1  UNL1       -0.4773
     24 C         143.4668  135.1471  155.9686 C.ar    1  UNL1        0.1386
     25 C         142.7815  134.5970  154.7530 C.ar    1  UNL1        0.0392
     26 C         142.3497  133.1610  154.7207 C.ar    1  UNL1        0.0327
     27 C         142.6033  132.2748  155.9041 C.ar    1  UNL1        0.1403
     28 F         142.1715  130.8387  155.8720 F       1  UNL1       -0.2042
     29 C         143.2885  132.8249  157.1198 C.ar    1  UNL1        0.0327
     30 C         143.7203  134.2611  157.1520 C.ar    1  UNL1        0.0392
@<TRIPOS>BOND
     1    21    22    1
     2    22     1    1
     3     1     2    2
     4     1     3   am
     5     3     4    1
     6     4     5    1
     7     5    23    1
     8    23    24    1
     9    24    25   ar
    10    25    26   ar
    11    26    27   ar
    12    27    28    1
    13    27    29   ar
    14    29    30   ar
    15     5     6    1
    16     6     7    1
    17     7     8    1
    18     8     9    2
    19     8    10   am
    20    10    11    1
    21    11    12    1
    22    12    13    1
    23    13    14    1
    24    14    17    1
    25    17    18    1
    26    18    19    1
    27    19    20    1
    28    14    15    1
    29    15    16    1
    30     7     3    1
    31    16    10    1
    32    30    24   ar
    33    20    17    1
@<TRIPOS>MOLECULE
*****
 30 33 0 0 0
SMALL
GASTEIGER

@<TRIPOS>ATOM
      1 C         138.6489  143.8864  162.2198 C.2     1  UNL1        0.4054
      2 O         138.3116  143.1069  160.9835 O.2     1  UNL1       -0.2262
      3 N         139.1019  143.1704  163.4576 N.am    1  UNL1       -0.2354
      4 C         139.4717  143.8122  164.7620 C.3     1  UNL1        0.1405
      5 C         139.8628  142.7254  165.7189 C.3     1  UNL1        0.1879
      6 C         139.7348  141.4119  165.0059 C.3     1  UNL1        0.0746
      7 C         139.2645  141.6870  163.6084 C.3     1  UNL1        0.1587
      8 C         139.0028  140.6590  162.5479 C.2     1  UNL1        0.2440
      9 O         137.6724  139.9691  162.4841 O.2     1  UNL1       -0.2731
     10 N         140.0714  140.3208  161.5511 N.am    1  UNL1       -0.2767
     11 C         141.3633  141.0676  161.7034 C.3     1  UNL1        0.0949
     12 C         142.6098  140.9587  160.8761 C.3     1  UNL1        0.0388
     13 C         142.8721  140.0759  159.6920 C.3     1  UNL1        0.0739
     14 N         141.9529  139.0841  159.0430 N.3     1  UNL1       -0.2725
     15 C         140.5443  138.7301  159.4176 C.3     1  UNL1        0.0938
     16 C         139.7069  139.2805  160.5338 C.3     1  UNL1        0.1107
     17 C         142.5169  138.3490  157.8632 C.3     1  UNL1        0.0576
     18 C         143.1786  138.7532  156.5792 C.3     1  UNL1        0.0160
     19 C         143.3145  137.3097  156.1950 C.3     1  UNL1        0.0028
     20 C         142.6528  136.9055  157.4790 C.3     1  UNL1        0.0160
     21 C         139.7061  146.2244  161.8122 C.3     1  UNL1        0.2573
     22 O         138.5333  145.3820  162.2183 O.3     1  UNL1       -0.4304
     23 O         140.3045  142.9182  167.1394 O.3     1  UNL1       -0.4773
     24 C         140.8445  141.7574  167.9211 C.ar    1  UNL1        0.1386
     25 C         140.0104  141.1231  168.9944 C.ar    1  UNL1        0.0392
     26 C         140.5503  139.9624  169.7761 C.ar    1  UNL1        0.0327
     27 C         141.9242  139.4358  169.4844 C.ar    1  UNL1        0.1403
     28 F         142.4641  138.2750  170.2661 F       1  UNL1       -0.2042
     29 C         142.7582  140.0701  168.4111 C.ar    1  UNL1        0.0327
     30 C         142.2183  141.2309  167.6294 C.ar    1  UNL1        0.0392
@<TRIPOS>BOND
     1    21    22    1
     2    22     1    1
     3     1     2    2
     4     1     3   am
     5     3     4    1
     6     4     5    1
     7     5    23    1
     8    23    24    1
     9    24    25   ar
    10    25    26   ar
    11    26    27   ar
    12    27    28    1
    13    27    29   ar
    14    29    30   ar
    15     5     6    1
    16     6     7    1
    17     7     8    1
    18     8     9    2
    19     8    10   am
    20    10    11    1
    21    11    12    1
    22    12    13    1
    23    13    14    1
    24    14    17    1
    25    17    18    1
    26    18    19    1
    27    19    20    1
    28    14    15    1
    29    15    16    1
    30     7     3    1
    31    16    10    1
    32    30    24   ar
    33    20    17    1
@<TRIPOS>MOLECULE
*****
 30 33 0 0 0
SMALL
GASTEIGER

@<TRIPOS>ATOM
      1 C         139.3946  143.3838  159.2843 C.2     1  UNL1        0.4054
      2 O         139.6248  142.8353  157.9073 O.2     1  UNL1       -0.2262
      3 N         138.7630  142.5235  160.3384 N.am    1  UNL1       -0.2354
      4 C         138.4718  142.9320  161.7519 C.3     1  UNL1        0.1405
      5 C         137.8407  141.7647  162.4511 C.3     1  UNL1        0.1879
      6 C         137.7419  140.6346  161.4696 C.3     1  UNL1        0.0746
      7 C         138.3120  141.1037  160.1639 C.3     1  UNL1        0.1587
      8 C         138.4131  140.2948  158.9047 C.2     1  UNL1        0.2440
      9 O         137.3001  140.3290  157.8998 O.2     1  UNL1       -0.2731
     10 N         139.6274  139.4516  158.6505 N.am    1  UNL1       -0.2767
     11 C         140.6807  139.4887  159.7178 C.3     1  UNL1        0.0949
     12 C         141.9945  138.7663  159.7608 C.3     1  UNL1        0.0388
     13 C         142.5796  137.8282  158.7469 C.3     1  UNL1        0.0739
     14 N         141.9953  137.3810  157.4398 N.3     1  UNL1       -0.2725
     15 C         140.6817  137.7613  156.8237 C.3     1  UNL1        0.0938
     16 C         139.6279  138.6829  157.3625 C.3     1  UNL1        0.1107
     17 C         142.8359  136.4273  156.6435 C.3     1  UNL1        0.0576
     18 C         143.9804  136.5686  155.6844 C.3     1  UNL1        0.0160
     19 C         144.0245  135.0786  155.5175 C.3     1  UNL1        0.0028
     20 C         142.8799  134.9373  156.4767 C.3     1  UNL1        0.0160
     21 C         141.1625  145.0758  160.1568 C.3     1  UNL1        0.2573
     22 O         139.7959  144.7926  159.6072 O.3     1  UNL1       -0.4304
     23 O         137.3878  141.7329  163.8808 O.3     1  UNL1       -0.4773
     24 C         138.3158  141.2388  164.9507 C.ar    1  UNL1        0.1386
     25 C         139.3919  142.1375  165.4839 C.ar    1  UNL1        0.0392
     26 C         140.3199  141.6435  166.5537 C.ar    1  UNL1        0.0327
     27 C         140.1719  140.2507  167.0904 C.ar    1  UNL1        0.1403
     28 F         141.1000  139.7566  168.1603 F       1  UNL1       -0.2042
     29 C         139.0959  139.3519  166.5573 C.ar    1  UNL1        0.0327
     30 C         138.1678  139.8460  165.4874 C.ar    1  UNL1        0.0392
@<TRIPOS>BOND
     1    21    22    1
     2    22     1    1
     3     1     2    2
     4     1     3   am
     5     3     4    1
     6     4     5    1
     7     5    23    1
     8    23    24    1
     9    24    25   ar
    10    25    26   ar
    11    26    27   ar
    12    27    28    1
    13    27    29   ar
    14    29    30   ar
    15     5     6    1
    16     6     7    1
    17     7     8    1
    18     8     9    2
    19     8    10   am
    20    10    11    1
    21    11    12    1
    22    12    13    1
    23    13    14    1
    24    14    17    1
    25    17    18    1
    26    18    19    1
    27    19    20    1
    28    14    15    1
    29    15    16    1
    30     7     3    1
    31    16    10    1
    32    30    24   ar
    33    20    17    1
@<TRIPOS>MOLECULE
*****
 30 33 0 0 0
SMALL
GASTEIGER

@<TRIPOS>ATOM
      1 C         143.4419  140.8070  159.4410 C.2     1  UNL1        0.4054
      2 O         143.5441  140.8901  160.9352 O.2     1  UNL1       -0.2262
      3 N         143.1358  139.4947  158.7820 N.am    1  UNL1       -0.2354
      4 C         143.0035  139.2587  157.3066 C.3     1  UNL1        0.1405
      5 C         142.6942  137.8062  157.0955 C.3     1  UNL1        0.1879
      6 C         142.6355  137.1445  158.4404 C.3     1  UNL1        0.0746
      7 C         142.9084  138.1881  159.4827 C.3     1  UNL1        0.1587
      8 C         142.9471  137.9643  160.9654 C.2     1  UNL1        0.2440
      9 O         144.2416  137.6145  161.6376 O.2     1  UNL1       -0.2731
     10 N         141.6913  138.0903  161.7760 N.am    1  UNL1       -0.2767
     11 C         140.4529  138.4434  161.0068 C.3     1  UNL1        0.0949
     12 C         139.0573  138.6399  161.5202 C.3     1  UNL1        0.0388
     13 C         138.5554  138.5319  162.9297 C.3     1  UNL1        0.0739
     14 N         139.3252  138.2007  164.1737 N.3     1  UNL1       -0.2725
     15 C         140.7869  137.8958  164.3157 C.3     1  UNL1        0.0938
     16 C         141.8400  137.8466  163.2485 C.3     1  UNL1        0.1107
     17 C         138.5277  138.1706  165.4439 C.3     1  UNL1        0.0576
     18 C         137.9051  137.0920  166.2800 C.3     1  UNL1        0.0160
     19 C         137.3999  138.1279  167.2400 C.3     1  UNL1        0.0028
     20 C         138.0225  139.2065  166.4038 C.3     1  UNL1        0.0160
     21 C         142.9144  143.3016  158.9426 C.3     1  UNL1        0.2573
     22 O         143.6459  142.0362  158.6057 O.3     1  UNL1       -0.4304
     23 O         142.4811  137.1334  155.7718 O.3     1  UNL1       -0.4773
     24 C         142.5392  135.6378  155.6727 C.ar    1  UNL1        0.1386
     25 C         141.3311  134.8683  155.2275 C.ar    1  UNL1        0.0392
     26 C         141.3891  133.3727  155.1283 C.ar    1  UNL1        0.0327
     27 C         142.6552  132.6467  155.4744 C.ar    1  UNL1        0.1403
     28 F         142.7133  131.1511  155.3752 F       1  UNL1       -0.2042
     29 C         143.8634  133.4163  155.9195 C.ar    1  UNL1        0.0327
     30 C         143.8053  134.9119  156.0187 C.ar    1  UNL1        0.0392
@<TRIPOS>BOND
     1    21    22    1
     2    22     1    1
     3     1     2    2
     4     1     3   am
     5     3     4    1
     6     4     5    1
     7     5    23    1
     8    23    24    1
     9    24    25   ar
    10    25    26   ar
    11    26    27   ar
    12    27    28    1
    13    27    29   ar
    14    29    30   ar
    15     5     6    1
    16     6     7    1
    17     7     8    1
    18     8     9    2
    19     8    10   am
    20    10    11    1
    21    11    12    1
    22    12    13    1
    23    13    14    1
    24    14    17    1
    25    17    18    1
    26    18    19    1
    27    19    20    1
    28    14    15    1
    29    15    16    1
    30     7     3    1
    31    16    10    1
    32    30    24   ar
    33    20    17    1
@<TRIPOS>MOLECULE
*****
 30 33 0 0 0
SMALL
GASTEIGER

@<TRIPOS>ATOM
      1 C         138.2178  142.4032  162.3089 C.2     1  UNL1        0.4054
      2 O         137.7072  143.1328  161.1019 O.2     1  UNL1       -0.2262
      3 N         139.4645  142.8735  162.9979 N.am    1  UNL1       -0.2354
      4 C         140.0919  142.2486  164.2086 C.3     1  UNL1        0.1405
      5 C         141.3177  143.0401  164.5562 C.3     1  UNL1        0.1879
      6 C         141.4479  144.1542  163.5602 C.3     1  UNL1        0.0746
      7 C         140.3025  144.0512  162.5971 C.3     1  UNL1        0.1587
      8 C         140.0411  144.9654  161.4370 C.2     1  UNL1        0.2440
      9 O         139.1240  146.1411  161.6004 O.2     1  UNL1       -0.2731
     10 N         140.6968  144.7039  160.1135 N.am    1  UNL1       -0.2767
     11 C         141.5943  143.5034  160.0576 C.3     1  UNL1        0.0949
     12 C         142.3849  142.9800  158.8954 C.3     1  UNL1        0.0388
     13 C         142.4733  143.5280  157.5018 C.3     1  UNL1        0.0739
     14 N         141.7929  144.7346  156.9264 N.3     1  UNL1       -0.2725
     15 C         140.8561  145.6912  157.6024 C.3     1  UNL1        0.0938
     16 C         140.3682  145.6776  159.0208 C.3     1  UNL1        0.1107
     17 C         142.0885  145.0226  155.4842 C.3     1  UNL1        0.0576
     18 C         143.2101  144.6919  154.5449 C.3     1  UNL1        0.0160
     19 C         142.5064  145.4298  153.4448 C.3     1  UNL1        0.0028
     20 C         141.3847  145.7605  154.3842 C.3     1  UNL1        0.0160
     21 C         137.8964  139.8267  162.3991 C.3     1  UNL1        0.2573
     22 O         137.4817  141.2032  162.8270 O.3     1  UNL1       -0.4304
     23 O         142.2498  142.7658  165.6990 O.3     1  UNL1       -0.4773
     24 C         142.7066  141.3638  165.9743 C.ar    1  UNL1        0.1386
     25 C         143.5587  140.6424  164.9726 C.ar    1  UNL1        0.0392
     26 C         144.0156  139.2405  165.2478 C.ar    1  UNL1        0.0327
     27 C         143.6204  138.5599  166.5247 C.ar    1  UNL1        0.1403
     28 F         144.0773  137.1580  166.8000 F       1  UNL1       -0.2042
     29 C         142.7683  139.2814  167.5265 C.ar    1  UNL1        0.0327
     30 C         142.3115  140.6833  167.2512 C.ar    1  UNL1        0.0392
@<TRIPOS>BOND
     1    21    22    1
     2    22     1    1
     3     1     2    2
     4     1     3   am
     5     3     4    1
     6     4     5    1
     7     5    23    1
     8    23    24    1
     9    24    25   ar
    10    25    26   ar
    11    26    27   ar
    12    27    28    1
    13    27    29   ar
    14    29    30   ar
    15     5     6    1
    16     6     7    1
    17     7     8    1
    18     8     9    2
    19     8    10   am
    20    10    11    1
    21    11    12    1
    22    12    13    1
    23    13    14    1
    24    14    17    1
    25    17    18    1
    26    18    19    1
    27    19    20    1
    28    14    15    1
    29    15    16    1
    30     7     3    1
    31    16    10    1
    32    30    24   ar
    33    20    17    1
@<TRIPOS>MOLECULE
*****
 30 33 0 0 0
SMALL
GASTEIGER

@<TRIPOS>ATOM
      1 C         143.0025  143.6106  161.3086 C.2     1  UNL1        0.4054
      2 O         143.1796  144.3264  162.6148 O.2     1  UNL1       -0.2262
      3 N         143.3698  142.1609  161.1918 N.am    1  UNL1       -0.2354
      4 C         143.2487  141.3173  159.9575 C.3     1  UNL1        0.1405
      5 C         143.7268  139.9355  160.2917 C.3     1  UNL1        0.1879
      6 C         144.1435  139.9250  161.7327 C.3     1  UNL1        0.0746
      7 C         143.9228  141.3005  162.2890 C.3     1  UNL1        0.1587
      8 C         144.2055  141.7385  163.6954 C.2     1  UNL1        0.2440
      9 O         145.6027  142.1044  164.1005 O.2     1  UNL1       -0.2731
     10 N         143.0912  141.8105  164.6969 N.am    1  UNL1       -0.2767
     11 C         141.7338  141.4236  164.1892 C.3     1  UNL1        0.0949
     12 C         140.4316  141.3906  164.9328 C.3     1  UNL1        0.0388
     13 C         140.1650  141.7363  166.3679 C.3     1  UNL1        0.0739
     14 N         141.1349  142.2005  167.4138 N.3     1  UNL1       -0.2725
     15 C         142.6109  142.4335  167.2828 C.3     1  UNL1        0.0938
     16 C         143.4815  142.2600  166.0737 C.3     1  UNL1        0.1107
     17 C         140.5517  142.4668  168.7699 C.3     1  UNL1        0.0576
     18 C         140.4503  143.6671  169.6637 C.3     1  UNL1        0.0160
     19 C         139.7270  142.8434  170.6876 C.3     1  UNL1        0.0028
     20 C         139.8284  141.6431  169.7937 C.3     1  UNL1        0.0160
     21 C         141.0735  144.9201  160.1622 C.3     1  UNL1        0.2573
     22 O         142.4580  144.3445  160.1190 O.3     1  UNL1       -0.4304
     23 O         143.7791  138.7688  159.3503 O.3     1  UNL1       -0.4773
     24 C         142.5611  138.3847  158.5636 C.ar    1  UNL1        0.1386
     25 C         142.7100  137.6908  157.2421 C.ar    1  UNL1        0.0392
     26 C         141.4921  137.3067  156.4553 C.ar    1  UNL1        0.0327
     27 C         140.1253  137.6164  156.9900 C.ar    1  UNL1        0.1403
     28 F         138.9073  137.2323  156.2033 F       1  UNL1       -0.2042
     29 C         139.9765  138.3103  158.3115 C.ar    1  UNL1        0.0327
     30 C         141.1944  138.6944  159.0983 C.ar    1  UNL1        0.0392
@<TRIPOS>BOND
     1    21    22    1
     2    22     1    1
     3     1     2    2
     4     1     3   am
     5     3     4    1
     6     4     5    1
     7     5    23    1
     8    23    24    1
     9    24    25   ar
    10    25    26   ar
    11    26    27   ar
    12    27    28    1
    13    27    29   ar
    14    29    30   ar
    15     5     6    1
    16     6     7    1
    17     7     8    1
    18     8     9    2
    19     8    10   am
    20    10    11    1
    21    11    12    1
    22    12    13    1
    23    13    14    1
    24    14    17    1
    25    17    18    1
    26    18    19    1
    27    19    20    1
    28    14    15    1
    29    15    16    1
    30     7     3    1
    31    16    10    1
    32    30    24   ar
    33    20    17    1
@<TRIPOS>MOLECULE
*****
 30 33 0 0 0
SMALL
GASTEIGER

@<TRIPOS>ATOM
      1 C         141.3947  138.3036  162.6470 C.2     1  UNL1        0.4054
      2 O         141.7534  138.6636  161.2357 O.2     1  UNL1       -0.2262
      3 N         142.0243  139.0401  163.7921 N.am    1  UNL1       -0.2354
      4 C         141.7652  138.7927  165.2486 C.3     1  UNL1        0.1405
      5 C         142.6043  139.7529  166.0384 C.3     1  UNL1        0.1879
      6 C         143.3821  140.5939  165.0699 C.3     1  UNL1        0.0746
      7 C         143.0236  140.1533  163.6816 C.3     1  UNL1        0.1587
      8 C         143.5687  140.7255  162.4067 C.2     1  UNL1        0.2440
      9 O         144.9089  140.2830  161.8987 O.2     1  UNL1       -0.2731
     10 N         142.7736  141.7401  161.6397 N.am    1  UNL1       -0.2767
     11 C         141.4480  142.1130  162.2342 C.3     1  UNL1        0.0949
     12 C         140.4306  143.0855  161.7156 C.3     1  UNL1        0.0388
     13 C         140.4877  143.9255  160.4741 C.3     1  UNL1        0.0739
     14 N         141.5762  144.0004  159.4448 N.3     1  UNL1       -0.2725
     15 C         142.8765  143.2538  159.4027 C.3     1  UNL1        0.0938
     16 C         143.4094  142.2478  160.3795 C.3     1  UNL1        0.1107
     17 C         141.3322  144.9471  158.3071 C.3     1  UNL1        0.0576
     18 C         142.1109  145.3770  157.0994 C.3     1  UNL1        0.0160
     19 C         140.9871  146.2859  156.6983 C.3     1  UNL1        0.0028
     20 C         140.2083  145.8559  157.9061 C.3     1  UNL1        0.0160
     21 C         138.9530  137.5339  163.0890 C.3     1  UNL1        0.2573
     22 O         140.4063  137.2071  162.9132 O.3     1  UNL1       -0.4304
     23 O         142.6566  139.8545  167.5341 O.3     1  UNL1       -0.4773
     24 C         142.1408  141.0843  168.2208 C.ar    1  UNL1        0.1386
     25 C         142.9094  141.6851  169.3602 C.ar    1  UNL1        0.0392
     26 C         142.3938  142.9148  170.0469 C.ar    1  UNL1        0.0327
     27 C         141.1095  143.5439  169.5943 C.ar    1  UNL1        0.1403
     28 F         140.5937  144.7737  170.2810 F       1  UNL1       -0.2042
     29 C         140.3409  142.9431  168.4548 C.ar    1  UNL1        0.0327
     30 C         140.8566  141.7133  167.7681 C.ar    1  UNL1        0.0392
@<TRIPOS>BOND
     1    21    22    1
     2    22     1    1
     3     1     2    2
     4     1     3   am
     5     3     4    1
     6     4     5    1
     7     5    23    1
     8    23    24    1
     9    24    25   ar
    10    25    26   ar
    11    26    27   ar
    12    27    28    1
    13    27    29   ar
    14    29    30   ar
    15     5     6    1
    16     6     7    1
    17     7     8    1
    18     8     9    2
    19     8    10   am
    20    10    11    1
    21    11    12    1
    22    12    13    1
    23    13    14    1
    24    14    17    1
    25    17    18    1
    26    18    19    1
    27    19    20    1
    28    14    15    1
    29    15    16    1
    30     7     3    1
    31    16    10    1
    32    30    24   ar
    33    20    17    1
@<TRIPOS>MOLECULE
*****
 30 33 0 0 0
SMALL
GASTEIGER

@<TRIPOS>ATOM
      1 C         142.3368  144.3438  162.5467 C.2     1  UNL1        0.4054
      2 O         142.6604  144.0647  161.1089 O.2     1  UNL1       -0.2262
      3 N         142.8424  143.4269  163.6209 N.am    1  UNL1       -0.2354
      4 C         142.6012  143.5770  165.0937 C.3     1  UNL1        0.1405
      5 C         143.2877  142.4419  165.7939 C.3     1  UNL1        0.1879
      6 C         143.9533  141.5904  164.7537 C.3     1  UNL1        0.0746
      7 C         143.6781  142.1992  163.4107 C.3     1  UNL1        0.1587
      8 C         144.1549  141.6727  162.0896 C.2     1  UNL1        0.2440
      9 O         145.5069  142.0631  161.5704 O.2     1  UNL1       -0.2731
     10 N         143.2797  140.7556  161.2877 N.am    1  UNL1       -0.2767
     11 C         141.9486  140.4285  161.8970 C.3     1  UNL1        0.0949
     12 C         140.8604  139.5520  161.3517 C.3     1  UNL1        0.0388
     13 C         140.8346  138.7860  160.0622 C.3     1  UNL1        0.0739
     14 N         141.8904  138.7075  158.9997 N.3     1  UNL1       -0.2725
     15 C         143.2329  139.3754  158.9642 C.3     1  UNL1        0.0938
     16 C         143.8513  140.2870  159.9825 C.3     1  UNL1        0.1107
     17 C         141.5600  137.8472  157.8161 C.3     1  UNL1        0.0576
     18 C         140.3404  137.6297  156.9705 C.3     1  UNL1        0.0160
     19 C         141.0927  136.6306  156.1424 C.3     1  UNL1        0.0028
     20 C         142.3124  136.8480  156.9881 C.3     1  UNL1        0.0160
     21 C         140.2887  145.8801  162.1051 C.3     1  UNL1        0.2573
     22 O         141.5075  145.5397  162.9105 O.3     1  UNL1       -0.4304
     23 O         143.3056  142.2007  167.2743 O.3     1  UNL1       -0.4773
     24 C         142.0527  141.7732  167.9797 C.ar    1  UNL1        0.1386
     25 C         141.4819  140.4082  167.7334 C.ar    1  UNL1        0.0392
     26 C         140.2291  139.9807  168.4388 C.ar    1  UNL1        0.0327
     27 C         139.5470  140.9182  169.3905 C.ar    1  UNL1        0.1403
     28 F         138.2942  140.4908  170.0959 F       1  UNL1       -0.2042
     29 C         140.1179  142.2833  169.6368 C.ar    1  UNL1        0.0327
     30 C         141.3708  142.7108  168.9314 C.ar    1  UNL1        0.0392
@<TRIPOS>BOND
     1    21    22    1
     2    22     1    1
     3     1     2    2
     4     1     3   am
     5     3     4    1
     6     4     5    1
     7     5    23    1
     8    23    24    1
     9    24    25   ar
    10    25    26   ar
    11    26    27   ar
    12    27    28    1
    13    27    29   ar
    14    29    30   ar
    15     5     6    1
    16     6     7    1
    17     7     8    1
    18     8     9    2
    19     8    10   am
    20    10    11    1
    21    11    12    1
    22    12    13    1
    23    13    14    1
    24    14    17    1
    25    17    18    1
    26    18    19    1
    27    19    20    1
    28    14    15    1
    29    15    16    1
    30     7     3    1
    31    16    10    1
    32    30    24   ar
    33    20    17    1
