@<TRIPOS>MOLECULE
*****
 21 23 0 0 0
SMALL
GASTEIGER

@<TRIPOS>ATOM
      1 N         141.9773  140.3057  166.9168 N.am    1  UNL1       -0.2844
      2 C         142.8408  139.1099  167.1897 C.2     1  UNL1        0.2274
      3 O         143.1375  138.7060  168.6036 O.2     1  UNL1       -0.2747
      4 H         141.7826  140.5707  165.9889 H       1  UNL1        0.1548
      5 C         143.5948  142.4999  168.1694 C.3     1  UNL1        0.0323
      6 C         142.2193  142.1948  168.6840 C.ar    1  UNL1       -0.0087
      7 C         141.6525  142.9867  169.8248 C.ar    1  UNL1       -0.0031
      8 C         140.2770  142.6815  170.3394 C.ar    1  UNL1       -0.0006
      9 C         139.4683  141.5845  169.7131 C.ar    1  UNL1       -0.0031
     10 C         140.0350  140.7925  168.5722 C.ar    1  UNL1       -0.0087
     11 C         139.2261  139.6953  167.9459 C.3     1  UNL1        0.0323
     12 C         141.4105  141.0976  168.0577 C.ar    1  UNL1        0.0422
     13 C         143.4075  138.3179  166.0489 C.3     1  UNL1        0.1000
     14 C         143.1117  138.7225  164.6351 C.3     1  UNL1        0.0541
     15 C         141.9762  137.8712  165.1208 C.3     1  UNL1        0.0166
     16 C         140.9787  137.7496  164.0072 C.3     1  UNL1        0.0187
     17 C         141.4976  138.5258  162.8332 C.3     1  UNL1        0.0721
     18 N         142.8159  139.1270  163.2213 N.3     1  UNL1       -0.2747
     19 C         143.9514  139.9783  162.7355 C.3     1  UNL1        0.0721
     20 C         144.9490  140.0999  163.8491 C.3     1  UNL1        0.0187
     21 C         144.4300  139.3237  165.0231 C.3     1  UNL1        0.0166
@<TRIPOS>BOND
     1     5     6    1
     2     6     7   ar
     3     7     8   ar
     4     8     9   ar
     5     9    10   ar
     6    10    11    1
     7    10    12   ar
     8    12     1    1
     9     1     2   am
    10     2     3    2
    11     2    13    1
    12    13    14    1
    13    14    15    1
    14    15    16    1
    15    16    17    1
    16    17    18    1
    17    18    19    1
    18    19    20    1
    19    20    21    1
    20    12     6   ar
    21    18    14    1
    22    21    14    1
    23     1     4    1
@<TRIPOS>MOLECULE
*****
 21 23 0 0 0
SMALL
GASTEIGER

@<TRIPOS>ATOM
      1 N         142.0454  140.3519  166.9208 N.am    1  UNL1       -0.2844
      2 C         142.9023  139.1462  167.1702 C.2     1  UNL1        0.2274
      3 O         143.1386  138.6712  168.5733 O.2     1  UNL1       -0.2747
      4 H         141.8904  140.6637  166.0000 H       1  UNL1        0.1548
      5 C         139.2571  139.6772  167.7983 C.3     1  UNL1        0.0323
      6 C         140.0306  140.7451  168.5133 C.ar    1  UNL1       -0.0087
      7 C         139.4100  141.4757  169.6670 C.ar    1  UNL1       -0.0031
      8 C         140.1835  142.5436  170.3819 C.ar    1  UNL1       -0.0006
      9 C         141.5776  142.8809  169.9433 C.ar    1  UNL1       -0.0031
     10 C         142.1983  142.1504  168.7895 C.ar    1  UNL1       -0.0087
     11 C         143.5925  142.4877  168.3509 C.3     1  UNL1        0.0323
     12 C         141.4248  141.0825  168.0745 C.ar    1  UNL1        0.0422
     13 C         143.5230  138.4157  166.0165 C.3     1  UNL1        0.1000
     14 C         143.1098  138.7427  164.6120 C.3     1  UNL1        0.0541
     15 C         142.0531  137.8642  165.2134 C.3     1  UNL1        0.0166
     16 C         140.9869  137.6483  164.1806 C.3     1  UNL1        0.0187
     17 C         141.3846  138.3934  162.9410 C.3     1  UNL1        0.0721
     18 N         142.6966  139.0698  163.2076 N.3     1  UNL1       -0.2747
     19 C         143.7533  139.9483  162.6062 C.3     1  UNL1        0.0721
     20 C         144.8196  140.1642  163.6390 C.3     1  UNL1        0.0187
     21 C         144.4218  139.4191  164.8786 C.3     1  UNL1        0.0166
@<TRIPOS>BOND
     1     5     6    1
     2     6     7   ar
     3     7     8   ar
     4     8     9   ar
     5     9    10   ar
     6    10    11    1
     7    10    12   ar
     8    12     1    1
     9     1     2   am
    10     2     3    2
    11     2    13    1
    12    13    14    1
    13    14    15    1
    14    15    16    1
    15    16    17    1
    16    17    18    1
    17    18    19    1
    18    19    20    1
    19    20    21    1
    20    12     6   ar
    21    18    14    1
    22    21    14    1
    23     1     4    1
@<TRIPOS>MOLECULE
*****
 21 23 0 0 0
SMALL
GASTEIGER

@<TRIPOS>ATOM
      1 N         142.4844  140.0387  168.1722 N.am    1  UNL1       -0.2844
      2 C         142.6051  140.0843  166.6778 C.2     1  UNL1        0.2274
      3 O         141.9709  141.2048  165.9079 O.2     1  UNL1       -0.2747
      4 H         142.9006  139.3034  168.6774 H       1  UNL1        0.1548
      5 C         139.5035  139.8498  168.4525 C.3     1  UNL1        0.0323
      6 C         140.2391  141.0190  169.0370 C.ar    1  UNL1       -0.0087
      7 C         139.4843  142.0938  169.7617 C.ar    1  UNL1       -0.0031
      8 C         140.2200  143.2630  170.3462 C.ar    1  UNL1       -0.0006
      9 C         141.7104  143.3575  170.2060 C.ar    1  UNL1       -0.0031
     10 C         142.4653  142.2827  169.4814 C.ar    1  UNL1       -0.0087
     11 C         143.9557  142.3773  169.3413 C.3     1  UNL1        0.0323
     12 C         141.7296  141.1135  168.8969 C.ar    1  UNL1        0.0422
     13 C         143.3599  139.0096  165.9531 C.3     1  UNL1        0.1000
     14 C         143.1216  138.7822  164.4897 C.3     1  UNL1        0.0541
     15 C         144.3084  139.6886  164.6307 C.3     1  UNL1        0.0166
     16 C         144.8036  140.0213  163.2544 C.3     1  UNL1        0.0187
     17 C         143.9227  139.3207  162.2629 C.3     1  UNL1        0.0721
     18 N         142.8832  138.5549  163.0263 N.3     1  UNL1       -0.2747
     19 C         141.6963  137.6485  162.8853 C.3     1  UNL1        0.0721
     20 C         141.2011  137.3157  164.2616 C.3     1  UNL1        0.0187
     21 C         142.0820  138.0164  165.2531 C.3     1  UNL1        0.0166
@<TRIPOS>BOND
     1     5     6    1
     2     6     7   ar
     3     7     8   ar
     4     8     9   ar
     5     9    10   ar
     6    10    11    1
     7    10    12   ar
     8    12     1    1
     9     1     2   am
    10     2     3    2
    11     2    13    1
    12    13    14    1
    13    14    15    1
    14    15    16    1
    15    16    17    1
    16    17    18    1
    17    18    19    1
    18    19    20    1
    19    20    21    1
    20    12     6   ar
    21    18    14    1
    22    21    14    1
    23     1     4    1
@<TRIPOS>MOLECULE
*****
 21 23 0 0 0
SMALL
GASTEIGER

@<TRIPOS>ATOM
      1 N         141.9772  139.6493  164.6488 N.am    1  UNL1       -0.2844
      2 C         143.2536  138.9596  165.0300 C.2     1  UNL1        0.2274
      3 O         143.2451  137.8985  166.0903 O.2     1  UNL1       -0.2747
      4 H         141.9828  140.3457  163.9529 H       1  UNL1        0.1548
      5 C         141.1058  141.1168  167.1160 C.3     1  UNL1        0.0323
      6 C         140.2566  140.0116  166.5615 C.ar    1  UNL1       -0.0087
      7 C         138.9718  139.6402  167.2405 C.ar    1  UNL1       -0.0031
      8 C         138.1226  138.5350  166.6860 C.ar    1  UNL1       -0.0006
      9 C         138.5583  137.8013  165.4525 C.ar    1  UNL1       -0.0031
     10 C         139.8432  138.1727  164.7733 C.ar    1  UNL1       -0.0087
     11 C         140.2788  137.4389  163.5397 C.3     1  UNL1        0.0323
     12 C         140.6923  139.2779  165.3279 C.ar    1  UNL1        0.0422
     13 C         144.5385  139.3311  164.3509 C.3     1  UNL1        0.1000
     14 C         144.5106  140.0290  163.0234 C.3     1  UNL1        0.0541
     15 C         144.0264  138.6242  162.8187 C.3     1  UNL1        0.0166
     16 C         143.6994  138.4539  161.3647 C.3     1  UNL1        0.0187
     17 C         143.9815  139.7535  160.6709 C.3     1  UNL1        0.0721
     18 N         144.4829  140.7270  161.6960 N.3     1  UNL1       -0.2747
     19 C         144.9671  142.1319  161.9008 C.3     1  UNL1        0.0721
     20 C         145.2941  142.3022  163.3548 C.3     1  UNL1        0.0187
     21 C         145.0120  141.0025  164.0486 C.3     1  UNL1        0.0166
@<TRIPOS>BOND
     1     5     6    1
     2     6     7   ar
     3     7     8   ar
     4     8     9   ar
     5     9    10   ar
     6    10    11    1
     7    10    12   ar
     8    12     1    1
     9     1     2   am
    10     2     3    2
    11     2    13    1
    12    13    14    1
    13    14    15    1
    14    15    16    1
    15    16    17    1
    16    17    18    1
    17    18    19    1
    18    19    20    1
    19    20    21    1
    20    12     6   ar
    21    18    14    1
    22    21    14    1
    23     1     4    1
@<TRIPOS>MOLECULE
*****
 21 23 0 0 0
SMALL
GASTEIGER

@<TRIPOS>ATOM
      1 N         141.9630  139.6388  164.6363 N.am    1  UNL1       -0.2844
      2 C         143.2476  138.9814  165.0457 C.2     1  UNL1        0.2274
      3 O         143.2449  137.9328  166.1184 O.2     1  UNL1       -0.2747
      4 H         141.9648  140.3270  163.9323 H       1  UNL1        0.1548
      5 C         140.3442  137.3617  163.5435 C.3     1  UNL1        0.0323
      6 C         139.8663  138.1091  164.7530 C.ar    1  UNL1       -0.0087
      7 C         138.5790  137.7179  165.4162 C.ar    1  UNL1       -0.0031
      8 C         138.1011  138.4652  166.6257 C.ar    1  UNL1       -0.0006
      9 C         138.9104  139.6037  167.1721 C.ar    1  UNL1       -0.0031
     10 C         140.1978  139.9950  166.5090 C.ar    1  UNL1       -0.0087
     11 C         141.0072  141.1336  167.0555 C.3     1  UNL1        0.0323
     12 C         140.6757  139.2476  165.2994 C.ar    1  UNL1        0.0422
     13 C         144.5350  139.3726  164.3826 C.3     1  UNL1        0.1000
     14 C         144.5132  140.0591  163.0490 C.3     1  UNL1        0.0541
     15 C         144.0695  138.6405  162.8473 C.3     1  UNL1        0.0166
     16 C         143.7735  138.4504  161.3892 C.3     1  UNL1        0.0187
     17 C         144.0344  139.7514  160.6897 C.3     1  UNL1        0.0721
     18 N         144.4915  140.7457  161.7156 N.3     1  UNL1       -0.2747
     19 C         144.9353  142.1643  161.9173 C.3     1  UNL1        0.0721
     20 C         145.2312  142.3545  163.3755 C.3     1  UNL1        0.0187
     21 C         144.9704  141.0534  164.0749 C.3     1  UNL1        0.0166
@<TRIPOS>BOND
     1     5     6    1
     2     6     7   ar
     3     7     8   ar
     4     8     9   ar
     5     9    10   ar
     6    10    11    1
     7    10    12   ar
     8    12     1    1
     9     1     2   am
    10     2     3    2
    11     2    13    1
    12    13    14    1
    13    14    15    1
    14    15    16    1
    15    16    17    1
    16    17    18    1
    17    18    19    1
    18    19    20    1
    19    20    21    1
    20    12     6   ar
    21    18    14    1
    22    21    14    1
    23     1     4    1
@<TRIPOS>MOLECULE
*****
 21 23 0 0 0
SMALL
GASTEIGER

@<TRIPOS>ATOM
      1 N         142.4028  139.9775  168.2094 N.am    1  UNL1       -0.2844
      2 C         142.6500  140.0816  166.7336 C.2     1  UNL1        0.2274
      3 O         142.1694  141.2836  165.9755 O.2     1  UNL1       -0.2747
      4 H         142.7182  139.1887  168.7069 H       1  UNL1        0.1548
      5 C         143.9232  142.3245  169.2960 C.3     1  UNL1        0.0323
      6 C         142.4353  142.2488  169.4705 C.ar    1  UNL1       -0.0087
      7 C         141.7076  143.3466  170.1883 C.ar    1  UNL1       -0.0031
      8 C         140.2197  143.2709  170.3629 C.ar    1  UNL1       -0.0006
      9 C         139.4596  142.0975  169.8196 C.ar    1  UNL1       -0.0031
     10 C         140.1873  140.9997  169.1018 C.ar    1  UNL1       -0.0087
     11 C         139.4270  139.8262  168.5585 C.3     1  UNL1        0.0323
     12 C         141.6751  141.0753  168.9272 C.ar    1  UNL1        0.0422
     13 C         143.3777  138.9838  166.0157 C.3     1  UNL1        0.1000
     14 C         143.1355  138.7549  164.5532 C.3     1  UNL1        0.0541
     15 C         144.3380  139.6410  164.6908 C.3     1  UNL1        0.0166
     16 C         144.8390  139.9596  163.3133 C.3     1  UNL1        0.0187
     17 C         143.9461  139.2705  162.3244 C.3     1  UNL1        0.0721
     18 N         142.8933  138.5260  163.0907 N.3     1  UNL1       -0.2747
     19 C         141.6908  137.6399  162.9531 C.3     1  UNL1        0.0721
     20 C         141.1898  137.3212  164.3306 C.3     1  UNL1        0.0187
     21 C         142.0827  138.0104  165.3195 C.3     1  UNL1        0.0166
@<TRIPOS>BOND
     1     5     6    1
     2     6     7   ar
     3     7     8   ar
     4     8     9   ar
     5     9    10   ar
     6    10    11    1
     7    10    12   ar
     8    12     1    1
     9     1     2   am
    10     2     3    2
    11     2    13    1
    12    13    14    1
    13    14    15    1
    14    15    16    1
    15    16    17    1
    16    17    18    1
    17    18    19    1
    18    19    20    1
    19    20    21    1
    20    12     6   ar
    21    18    14    1
    22    21    14    1
    23     1     4    1
@<TRIPOS>MOLECULE
*****
 21 23 0 0 0
SMALL
GASTEIGER

@<TRIPOS>ATOM
      1 N         139.8968  141.9255  166.4851 N.am    1  UNL1       -0.2844
      2 C         141.3760  142.1431  166.3644 C.2     1  UNL1        0.2274
      3 O         142.0063  142.2773  165.0097 O.2     1  UNL1       -0.2747
      4 H         139.4832  141.8375  167.3742 H       1  UNL1        0.1548
      5 C         139.2464  139.2519  165.2899 C.3     1  UNL1        0.0323
      6 C         138.7226  140.5052  164.6537 C.ar    1  UNL1       -0.0087
      7 C         137.8736  140.4218  163.4199 C.ar    1  UNL1       -0.0031
      8 C         137.3498  141.6751  162.7838 C.ar    1  UNL1       -0.0006
      9 C         137.6750  143.0119  163.3814 C.ar    1  UNL1       -0.0031
     10 C         138.5240  143.0954  164.6152 C.ar    1  UNL1       -0.0087
     11 C         138.8491  144.4323  165.2128 C.3     1  UNL1        0.0323
     12 C         139.0478  141.8420  165.2513 C.ar    1  UNL1        0.0422
     13 C         142.2250  142.2266  167.5981 C.3     1  UNL1        0.1000
     14 C         141.7881  141.5381  168.8572 C.3     1  UNL1        0.0541
     15 C         141.2961  142.9542  168.9086 C.3     1  UNL1        0.0166
     16 C         140.5552  143.1409  170.1994 C.3     1  UNL1        0.0187
     17 C         140.5892  141.8401  170.9457 C.3     1  UNL1        0.0721
     18 N         141.3512  140.8496  170.1161 N.3     1  UNL1       -0.2747
     19 C         141.8431  139.4335  170.0647 C.3     1  UNL1        0.0721
     20 C         142.5841  139.2468  168.7738 C.3     1  UNL1        0.0187
     21 C         142.5500  140.5476  168.0276 C.3     1  UNL1        0.0166
@<TRIPOS>BOND
     1     5     6    1
     2     6     7   ar
     3     7     8   ar
     4     8     9   ar
     5     9    10   ar
     6    10    11    1
     7    10    12   ar
     8    12     1    1
     9     1     2   am
    10     2     3    2
    11     2    13    1
    12    13    14    1
    13    14    15    1
    14    15    16    1
    15    16    17    1
    16    17    18    1
    17    18    19    1
    18    19    20    1
    19    20    21    1
    20    12     6   ar
    21    18    14    1
    22    21    14    1
    23     1     4    1
@<TRIPOS>MOLECULE
*****
 21 23 0 0 0
SMALL
GASTEIGER

@<TRIPOS>ATOM
      1 N         141.0048  143.1439  165.2595 N.am    1  UNL1       -0.2844
      2 C         140.8872  142.1908  166.4118 C.2     1  UNL1        0.2274
      3 O         139.7395  141.2269  166.4737 O.2     1  UNL1       -0.2747
      4 H         141.7581  143.7765  165.2189 H       1  UNL1        0.1548
      5 C         141.3653  141.3618  162.8732 C.3     1  UNL1        0.0323
      6 C         140.1551  142.2420  162.9759 C.ar    1  UNL1       -0.0087
      7 C         139.1251  142.2312  161.8855 C.ar    1  UNL1       -0.0031
      8 C         137.9149  143.1115  161.9883 C.ar    1  UNL1       -0.0006
      9 C         137.7346  144.0025  163.1813 C.ar    1  UNL1       -0.0031
     10 C         138.7646  144.0133  164.2718 C.ar    1  UNL1       -0.0087
     11 C         138.5843  144.9044  165.4650 C.3     1  UNL1        0.0323
     12 C         139.9748  143.1331  164.1691 C.ar    1  UNL1        0.0422
     13 C         141.9172  142.2017  167.5022 C.3     1  UNL1        0.1000
     14 C         141.6044  141.5892  168.8353 C.3     1  UNL1        0.0541
     15 C         142.4036  140.5960  168.0450 C.3     1  UNL1        0.0166
     16 C         142.5848  139.3697  168.8897 C.3     1  UNL1        0.0187
     17 C         141.8976  139.6052  170.2021 C.3     1  UNL1        0.0721
     18 N         141.2917  140.9769  170.1685 N.3     1  UNL1       -0.2747
     19 C         140.4925  141.9702  170.9588 C.3     1  UNL1        0.0721
     20 C         140.3113  143.1965  170.1141 C.3     1  UNL1        0.0187
     21 C         140.9986  142.9610  168.8018 C.3     1  UNL1        0.0166
@<TRIPOS>BOND
     1     5     6    1
     2     6     7   ar
     3     7     8   ar
     4     8     9   ar
     5     9    10   ar
     6    10    11    1
     7    10    12   ar
     8    12     1    1
     9     1     2   am
    10     2     3    2
    11     2    13    1
    12    13    14    1
    13    14    15    1
    14    15    16    1
    15    16    17    1
    16    17    18    1
    17    18    19    1
    18    19    20    1
    19    20    21    1
    20    12     6   ar
    21    18    14    1
    22    21    14    1
    23     1     4    1
@<TRIPOS>MOLECULE
*****
 21 23 0 0 0
SMALL
GASTEIGER

@<TRIPOS>ATOM
      1 N         139.8814  141.9846  166.4805 N.am    1  UNL1       -0.2844
      2 C         141.3642  142.1815  166.3686 C.2     1  UNL1        0.2274
      3 O         142.0038  142.3115  165.0179 O.2     1  UNL1       -0.2747
      4 H         139.4617  141.8992  167.3670 H       1  UNL1        0.1548
      5 C         138.8740  144.5104  165.2135 C.3     1  UNL1        0.0323
      6 C         138.5344  143.1806  164.6083 C.ar    1  UNL1       -0.0087
      7 C         137.6911  143.1137  163.3696 C.ar    1  UNL1       -0.0031
      8 C         137.3516  141.7838  162.7644 C.ar    1  UNL1       -0.0006
      9 C         137.8552  140.5210  163.3979 C.ar    1  UNL1       -0.0031
     10 C         138.6986  140.5878  164.6366 C.ar    1  UNL1       -0.0087
     11 C         139.2022  139.3248  165.2701 C.3     1  UNL1        0.0323
     12 C         139.0381  141.9177  165.2418 C.ar    1  UNL1        0.0422
     13 C         142.2075  142.2484  167.6073 C.3     1  UNL1        0.1000
     14 C         141.7583  141.5541  168.8588 C.3     1  UNL1        0.0541
     15 C         141.2499  142.9646  168.9033 C.3     1  UNL1        0.0166
     16 C         140.4865  143.1420  170.1823 C.3     1  UNL1        0.0187
     17 C         140.5231  141.8411  170.9282 C.3     1  UNL1        0.0721
     18 N         141.3091  140.8597  170.1102 N.3     1  UNL1       -0.2747
     19 C         141.8174  139.4492  170.0658 C.3     1  UNL1        0.0721
     20 C         142.5809  139.2717  168.7867 C.3     1  UNL1        0.0187
     21 C         142.5443  140.5727  168.0408 C.3     1  UNL1        0.0166
@<TRIPOS>BOND
     1     5     6    1
     2     6     7   ar
     3     7     8   ar
     4     8     9   ar
     5     9    10   ar
     6    10    11    1
     7    10    12   ar
     8    12     1    1
     9     1     2   am
    10     2     3    2
    11     2    13    1
    12    13    14    1
    13    14    15    1
    14    15    16    1
    15    16    17    1
    16    17    18    1
    17    18    19    1
    18    19    20    1
    19    20    21    1
    20    12     6   ar
    21    18    14    1
    22    21    14    1
    23     1     4    1
