@<TRIPOS>MOLECULE
*****
 39 44 0 0 0
SMALL
GASTEIGER

@<TRIPOS>ATOM
      1 C         137.8153  142.9266  163.2353 C.3     1  UNL1        0.0932
      2 C         137.6739  141.7510  164.1563 C.3     1  UNL1        0.0286
      3 C         137.6941  140.3573  163.6020 C.3     1  UNL1        0.0193
      4 C         137.8557  140.1391  162.1268 C.3     1  UNL1        0.0700
      5 C         137.9970  141.3146  161.2058 C.3     1  UNL1        0.0193
      6 C         137.9768  142.7084  161.7601 C.3     1  UNL1        0.0286
      7 C         137.8505  140.9214  162.3839 C.3     1  UNL1        0.1562
      8 O         137.8322  142.1816  162.8851 O.3     1  UNL1       -0.3572
      9 N         137.8758  138.7455  161.5725 N.3     1  UNL1       -0.2926
     10 H         137.2973  138.7543  160.7325 H       1  UNL1        0.1236
     11 C         139.1797  138.1078  161.1937 C.3     1  UNL1        0.1152
     12 C         140.3818  138.2782  162.0744 C.ar    1  UNL1        0.0765
     13 C         140.5299  137.4427  163.3113 C.ar    1  UNL1        0.0193
     14 C         141.7320  137.6131  164.1921 C.ar    1  UNL1        0.0411
     15 C         142.7862  138.6191  163.8359 C.ar    1  UNL1        0.1708
     16 C         142.6381  139.4547  162.5990 C.ar    1  UNL1        0.1682
     17 N         141.4359  139.2842  161.7182 N.ar    1  UNL1       -0.2304
     18 N         143.6922  140.4606  162.2428 N.am    1  UNL1       -0.2639
     19 C         144.8944  140.6311  163.1236 C.2     1  UNL1        0.2718
     20 O         145.9485  141.6371  162.7674 O.2     1  UNL1       -0.2707
     21 C         145.0425  139.7956  164.3605 C.3     1  UNL1        0.2898
     22 O         143.9883  138.7896  164.7166 O.3     1  UNL1       -0.4628
     23 H         143.5950  141.0090  161.4310 H       1  UNL1        0.1565
     24 C         137.7951  144.3202  163.7896 C.3     1  UNL1        0.0319
     25 C         138.9259  144.8019  164.6493 C.3     1  UNL1        0.0304
     26 C         140.9266  142.0580  167.6020 C.ar    1  UNL1        0.1595
     27 N         140.2597  142.9727  166.6178 N.ar    1  UNL1       -0.2272
     28 C         140.9887  143.4007  165.3786 C.ar    1  UNL1        0.0965
     29 C         140.3218  144.3154  164.3944 C.ar    1  UNL1       -0.0014
     30 C         141.0507  144.7435  163.1553 C.ar    1  UNL1        0.0179
     31 C         142.4465  144.2569  162.9005 C.ar    1  UNL1        0.0986
     32 N         143.1134  143.3423  163.8847 N.ar    1  UNL1       -0.2423
     33 C         142.3845  142.9142  165.1238 C.ar    1  UNL1        0.1010
     34 C         143.0514  141.9996  166.1080 C.ar    1  UNL1        0.0531
     35 C         142.3225  141.5715  167.3471 C.ar    1  UNL1        0.1730
     36 F         142.9894  140.6569  168.3314 F       1  UNL1       -0.2012
     37 C         139.5883  140.2615  168.9178 C.3     1  UNL1        0.1137
     38 N         140.1977  141.6299  168.8411 N.pl3   1  UNL1       -0.2880
     39 C         140.0782  142.5704  170.0037 C.3     1  UNL1        0.1137
@<TRIPOS>BOND
     1    37    38    1
     2    38    39    1
     3    38    26    1
     4    26    27   ar
     5    27    28   ar
     6    28    29   ar
     7    29    25    1
     8    25    24    1
     9    24     1    1
    10     1     2    1
    11     2     3    1
    12     3     4    1
    13     4     9    1
    14     9    11    1
    15    11    12    1
    16    12    13   ar
    17    13    14   ar
    18    14    15   ar
    19    15    16   ar
    20    16    17   ar
    21    16    18    1
    22    18    19   am
    23    19    20    2
    24    19    21    1
    25    21    22    1
    26     4     5    1
    27     5     6    1
    28     4     7    1
    29     7     8    1
    30    29    30   ar
    31    30    31   ar
    32    31    32   ar
    33    32    33   ar
    34    33    34   ar
    35    34    35   ar
    36    35    36    1
    37    35    26   ar
    38    33    28   ar
    39     6     1    1
    40     8     1    1
    41    17    12   ar
    42    22    15    1
    43     9    10    1
    44    18    23    1
@<TRIPOS>MOLECULE
*****
 39 44 0 0 0
SMALL
GASTEIGER

@<TRIPOS>ATOM
      1 C         142.2694  137.9426  163.9511 C.3     1  UNL1        0.0932
      2 C         142.5276  138.2873  162.5142 C.3     1  UNL1        0.0286
      3 C         143.6333  139.2360  162.1575 C.3     1  UNL1        0.0193
      4 C         144.4808  139.8402  163.2377 C.3     1  UNL1        0.0700
      5 C         144.2227  139.4955  164.6745 C.3     1  UNL1        0.0193
      6 C         143.1169  138.5467  165.0313 C.3     1  UNL1        0.0286
      7 C         143.8865  139.3254  163.4820 C.3     1  UNL1        0.1562
      8 O         142.8866  138.4675  163.8045 O.3     1  UNL1       -0.3572
      9 N         145.5865  140.7889  162.8810 N.3     1  UNL1       -0.2926
     10 H         145.6034  140.8521  161.8631 H       1  UNL1        0.1236
     11 C         145.5652  142.1954  163.4019 C.3     1  UNL1        0.1152
     12 C         144.3369  143.0395  163.2323 C.ar    1  UNL1        0.0765
     13 C         143.6419  143.6030  164.4362 C.ar    1  UNL1        0.0193
     14 C         142.4136  144.4470  164.2665 C.ar    1  UNL1        0.0411
     15 C         141.8803  144.7277  162.8929 C.ar    1  UNL1        0.1708
     16 C         142.5753  144.1642  161.6889 C.ar    1  UNL1        0.1682
     17 N         143.8037  143.3201  161.8587 N.ar    1  UNL1       -0.2304
     18 N         142.0421  144.4448  160.3153 N.am    1  UNL1       -0.2639
     19 C         140.8137  145.2889  160.1456 C.2     1  UNL1        0.2718
     20 O         140.2804  145.5695  158.7720 O.2     1  UNL1       -0.2707
     21 C         140.1187  145.8524  161.3495 C.3     1  UNL1        0.2898
     22 O         140.6520  145.5718  162.7232 O.3     1  UNL1       -0.4628
     23 H         142.4982  144.0750  159.5252 H       1  UNL1        0.1565
     24 C         141.1637  136.9939  164.3078 C.3     1  UNL1        0.0319
     25 C         139.8402  137.5253  164.7724 C.3     1  UNL1        0.0304
     26 C         140.1349  141.7590  166.2687 C.ar    1  UNL1        0.1595
     27 N         140.0367  140.3477  165.7699 N.ar    1  UNL1       -0.2272
     28 C         139.2693  140.0469  164.5166 C.ar    1  UNL1        0.0965
     29 C         139.1711  138.6357  164.0178 C.ar    1  UNL1       -0.0014
     30 C         138.4038  138.3349  162.7646 C.ar    1  UNL1        0.0179
     31 C         137.7348  139.4453  162.0100 C.ar    1  UNL1        0.0986
     32 N         137.8330  140.8565  162.5088 N.ar    1  UNL1       -0.2423
     33 C         138.6003  141.1573  163.7620 C.ar    1  UNL1        0.1010
     34 C         138.6986  142.5686  164.2608 C.ar    1  UNL1        0.0531
     35 C         139.4659  142.8694  165.5141 C.ar    1  UNL1        0.1730
     36 F         139.5641  144.2807  166.0128 F       1  UNL1       -0.2012
     37 C         140.1697  142.3746  168.7925 C.3     1  UNL1        0.1137
     38 N         140.9022  142.0598  167.5219 N.pl3   1  UNL1       -0.2880
     39 C         142.4021  142.0459  167.5047 C.3     1  UNL1        0.1137
@<TRIPOS>BOND
     1    37    38    1
     2    38    39    1
     3    38    26    1
     4    26    27   ar
     5    27    28   ar
     6    28    29   ar
     7    29    25    1
     8    25    24    1
     9    24     1    1
    10     1     2    1
    11     2     3    1
    12     3     4    1
    13     4     9    1
    14     9    11    1
    15    11    12    1
    16    12    13   ar
    17    13    14   ar
    18    14    15   ar
    19    15    16   ar
    20    16    17   ar
    21    16    18    1
    22    18    19   am
    23    19    20    2
    24    19    21    1
    25    21    22    1
    26     4     5    1
    27     5     6    1
    28     4     7    1
    29     7     8    1
    30    29    30   ar
    31    30    31   ar
    32    31    32   ar
    33    32    33   ar
    34    33    34   ar
    35    34    35   ar
    36    35    36    1
    37    35    26   ar
    38    33    28   ar
    39     6     1    1
    40     8     1    1
    41    17    12   ar
    42    22    15    1
    43     9    10    1
    44    18    23    1
@<TRIPOS>MOLECULE
*****
 39 44 0 0 0
SMALL
GASTEIGER

@<TRIPOS>ATOM
      1 C         144.5487  139.8654  163.5470 C.3     1  UNL1        0.0932
      2 C         144.2153  139.7079  162.0930 C.3     1  UNL1        0.0286
      3 C         143.0736  138.8287  161.6763 C.3     1  UNL1        0.0193
      4 C         142.2653  138.1071  162.7135 C.3     1  UNL1        0.0700
      5 C         142.5986  138.2646  164.1675 C.3     1  UNL1        0.0193
      6 C         143.7403  139.1438  164.5843 C.3     1  UNL1        0.0286
      7 C         142.8816  138.5778  162.9903 C.3     1  UNL1        0.1562
      8 O         143.9139  139.3728  163.3671 O.3     1  UNL1       -0.3572
      9 N         141.1236  137.2280  162.2968 N.3     1  UNL1       -0.2926
     10 H         140.9081  136.6281  163.0931 H       1  UNL1        0.1236
     11 C         139.8283  137.8408  161.8532 C.3     1  UNL1        0.1152
     12 C         139.2762  139.0333  162.5764 C.ar    1  UNL1        0.0765
     13 C         138.6635  138.8687  163.9356 C.ar    1  UNL1        0.0193
     14 C         138.1114  140.0612  164.6589 C.ar    1  UNL1        0.0411
     15 C         138.1719  141.4183  164.0228 C.ar    1  UNL1        0.1708
     16 C         138.7846  141.5829  162.6636 C.ar    1  UNL1        0.1682
     17 N         139.3367  140.3903  161.9404 N.ar    1  UNL1       -0.2304
     18 N         138.8452  142.9400  162.0275 N.am    1  UNL1       -0.2639
     19 C         138.2931  144.1326  162.7508 C.2     1  UNL1        0.2718
     20 O         138.3536  145.4897  162.1147 O.2     1  UNL1       -0.2707
     21 C         137.6804  143.9680  164.1100 C.3     1  UNL1        0.2898
     22 O         137.6198  142.6108  164.7460 O.3     1  UNL1       -0.4628
     23 H         139.2473  143.0480  161.1354 H       1  UNL1        0.1565
     24 C         145.6903  140.7445  163.9638 C.3     1  UNL1        0.0319
     25 C         145.4644  142.2098  164.1913 C.3     1  UNL1        0.0304
     26 C         142.4444  141.9381  167.5163 C.ar    1  UNL1        0.1595
     27 N         143.4510  142.0287  166.4080 N.ar    1  UNL1       -0.2272
     28 C         143.0882  142.7039  165.1186 C.ar    1  UNL1        0.0965
     29 C         144.0948  142.7945  164.0102 C.ar    1  UNL1       -0.0014
     30 C         143.7321  143.4697  162.7209 C.ar    1  UNL1        0.0179
     31 C         142.3626  144.0543  162.5399 C.ar    1  UNL1        0.0986
     32 N         141.3560  143.9637  163.6482 N.ar    1  UNL1       -0.2423
     33 C         141.7187  143.2885  164.9376 C.ar    1  UNL1        0.1010
     34 C         140.7121  143.1980  166.0459 C.ar    1  UNL1        0.0531
     35 C         141.0748  142.5228  167.3352 C.ar    1  UNL1        0.1730
     36 F         140.0682  142.4322  168.4436 F       1  UNL1       -0.2012
     37 C         143.4243  142.0556  169.9196 C.3     1  UNL1        0.1137
     38 N         142.8071  141.2629  168.8057 N.pl3   1  UNL1       -0.2880
     39 C         142.5528  139.7951  168.9811 C.3     1  UNL1        0.1137
@<TRIPOS>BOND
     1    37    38    1
     2    38    39    1
     3    38    26    1
     4    26    27   ar
     5    27    28   ar
     6    28    29   ar
     7    29    25    1
     8    25    24    1
     9    24     1    1
    10     1     2    1
    11     2     3    1
    12     3     4    1
    13     4     9    1
    14     9    11    1
    15    11    12    1
    16    12    13   ar
    17    13    14   ar
    18    14    15   ar
    19    15    16   ar
    20    16    17   ar
    21    16    18    1
    22    18    19   am
    23    19    20    2
    24    19    21    1
    25    21    22    1
    26     4     5    1
    27     5     6    1
    28     4     7    1
    29     7     8    1
    30    29    30   ar
    31    30    31   ar
    32    31    32   ar
    33    32    33   ar
    34    33    34   ar
    35    34    35   ar
    36    35    36    1
    37    35    26   ar
    38    33    28   ar
    39     6     1    1
    40     8     1    1
    41    17    12   ar
    42    22    15    1
    43     9    10    1
    44    18    23    1
@<TRIPOS>MOLECULE
*****
 39 44 0 0 0
SMALL
GASTEIGER

@<TRIPOS>ATOM
      1 C         141.0327  144.8620  162.9148 C.3     1  UNL1        0.0932
      2 C         141.2440  144.1448  161.6143 C.3     1  UNL1        0.0286
      3 C         142.5912  143.5752  161.2822 C.3     1  UNL1        0.0193
      4 C         143.7273  143.7227  162.2504 C.3     1  UNL1        0.0700
      5 C         143.5162  144.4399  163.5508 C.3     1  UNL1        0.0193
      6 C         142.1688  145.0095  163.8830 C.3     1  UNL1        0.0286
      7 C         143.0071  144.0516  162.4765 C.3     1  UNL1        0.1562
      8 O         141.7888  144.5667  162.7768 O.3     1  UNL1       -0.3572
      9 N         145.0746  143.1531  161.9183 N.3     1  UNL1       -0.2926
     10 H         145.7528  143.9028  162.0540 H       1  UNL1        0.1236
     11 C         145.5907  141.9612  162.6687 C.3     1  UNL1        0.1152
     12 C         144.6443  140.8828  163.1060 C.ar    1  UNL1        0.0765
     13 C         144.8665  140.1728  164.4085 C.ar    1  UNL1        0.0193
     14 C         143.9201  139.0944  164.8458 C.ar    1  UNL1        0.0411
     15 C         142.7514  138.7260  163.9807 C.ar    1  UNL1        0.1708
     16 C         142.5292  139.4360  162.6782 C.ar    1  UNL1        0.1682
     17 N         143.4757  140.5145  162.2408 N.ar    1  UNL1       -0.2304
     18 N         141.3605  139.0677  161.8130 N.am    1  UNL1       -0.2639
     19 C         140.4140  137.9892  162.2503 C.2     1  UNL1        0.2718
     20 O         139.2454  137.6209  161.3851 O.2     1  UNL1       -0.2707
     21 C         140.6362  137.2792  163.5528 C.3     1  UNL1        0.2898
     22 O         141.8049  137.6476  164.4180 O.3     1  UNL1       -0.4628
     23 H         141.2147  139.5337  160.9581 H       1  UNL1        0.1565
     24 C         139.6854  145.4315  163.2469 C.3     1  UNL1        0.0319
     25 C         138.8014  144.7366  164.2397 C.3     1  UNL1        0.0304
     26 C         140.6388  141.9526  167.2601 C.ar    1  UNL1        0.1595
     27 N         140.0263  142.8806  166.2533 N.ar    1  UNL1       -0.2272
     28 C         139.1845  142.3300  165.1404 C.ar    1  UNL1        0.0965
     29 C         138.5721  143.2580  164.1336 C.ar    1  UNL1       -0.0014
     30 C         137.7303  142.7075  163.0208 C.ar    1  UNL1        0.0179
     31 C         137.5011  141.2289  162.9148 C.ar    1  UNL1        0.0986
     32 N         138.1135  140.3009  163.9217 N.ar    1  UNL1       -0.2423
     33 C         138.9553  140.8514  165.0344 C.ar    1  UNL1        0.1010
     34 C         139.5677  139.9234  166.0412 C.ar    1  UNL1        0.0531
     35 C         140.4095  140.4739  167.1540 C.ar    1  UNL1        0.1730
     36 F         141.0219  139.5459  168.1608 F       1  UNL1       -0.2012
     37 C         142.9624  142.2709  168.3777 C.3     1  UNL1        0.1137
     38 N         141.4805  142.5031  168.3729 N.pl3   1  UNL1       -0.2880
     39 C         140.8403  143.2858  169.4809 C.3     1  UNL1        0.1137
@<TRIPOS>BOND
     1    37    38    1
     2    38    39    1
     3    38    26    1
     4    26    27   ar
     5    27    28   ar
     6    28    29   ar
     7    29    25    1
     8    25    24    1
     9    24     1    1
    10     1     2    1
    11     2     3    1
    12     3     4    1
    13     4     9    1
    14     9    11    1
    15    11    12    1
    16    12    13   ar
    17    13    14   ar
    18    14    15   ar
    19    15    16   ar
    20    16    17   ar
    21    16    18    1
    22    18    19   am
    23    19    20    2
    24    19    21    1
    25    21    22    1
    26     4     5    1
    27     5     6    1
    28     4     7    1
    29     7     8    1
    30    29    30   ar
    31    30    31   ar
    32    31    32   ar
    33    32    33   ar
    34    33    34   ar
    35    34    35   ar
    36    35    36    1
    37    35    26   ar
    38    33    28   ar
    39     6     1    1
    40     8     1    1
    41    17    12   ar
    42    22    15    1
    43     9    10    1
    44    18    23    1
@<TRIPOS>MOLECULE
*****
 39 44 0 0 0
SMALL
GASTEIGER

@<TRIPOS>ATOM
      1 C         144.4506  142.8933  163.1573 C.3     1  UNL1        0.0932
      2 C         144.0656  143.7918  164.2950 C.3     1  UNL1        0.0286
      3 C         142.9530  144.7833  164.1244 C.3     1  UNL1        0.0193
      4 C         142.2253  144.8762  162.8160 C.3     1  UNL1        0.0700
      5 C         142.6103  143.9777  161.6783 C.3     1  UNL1        0.0193
      6 C         143.7229  142.9862  161.8489 C.3     1  UNL1        0.0286
      7 C         142.8283  144.3173  162.8620 C.3     1  UNL1        0.1562
      8 O         143.8343  143.4209  163.0163 O.3     1  UNL1       -0.3572
      9 N         141.1128  145.8677  162.6454 N.3     1  UNL1       -0.2926
     10 H         141.0756  146.1006  161.6530 H       1  UNL1        0.1236
     11 C         139.7165  145.5066  163.0580 C.3     1  UNL1        0.1152
     12 C         139.1734  144.1422  162.7527 C.ar    1  UNL1        0.0765
     13 C         138.7499  143.2360  163.8705 C.ar    1  UNL1        0.0193
     14 C         138.2068  141.8716  163.5652 C.ar    1  UNL1        0.0411
     15 C         138.0870  141.4133  162.1419 C.ar    1  UNL1        0.1708
     16 C         138.5105  142.3194  161.0240 C.ar    1  UNL1        0.1682
     17 N         139.0536  143.6839  161.3295 N.ar    1  UNL1       -0.2304
     18 N         138.3907  141.8611  159.6008 N.am    1  UNL1       -0.2639
     19 C         137.8476  140.4966  159.2954 C.2     1  UNL1        0.2718
     20 O         137.7278  140.0384  157.8722 O.2     1  UNL1       -0.2707
     21 C         137.4241  139.5905  160.4132 C.3     1  UNL1        0.2898
     22 O         137.5439  140.0488  161.8365 O.3     1  UNL1       -0.4628
     23 H         138.6687  142.4559  158.8671 H       1  UNL1        0.1565
     24 C         145.5631  141.9019  163.3279 C.3     1  UNL1        0.0319
     25 C         145.3286  140.6366  164.0986 C.3     1  UNL1        0.0304
     26 C         141.8297  140.6538  166.9283 C.ar    1  UNL1        0.1595
     27 N         142.9960  140.6481  165.9851 N.ar    1  UNL1       -0.2272
     28 C         142.9570  139.7985  164.7494 C.ar    1  UNL1        0.0965
     29 C         144.1233  139.7927  163.8062 C.ar    1  UNL1       -0.0014
     30 C         144.0844  138.9433  162.5705 C.ar    1  UNL1        0.0179
     31 C         142.8792  138.0995  162.2782 C.ar    1  UNL1        0.0986
     32 N         141.7129  138.1053  163.2214 N.ar    1  UNL1       -0.2423
     33 C         141.7518  138.9548  164.4570 C.ar    1  UNL1        0.1010
     34 C         140.5855  138.9605  165.4003 C.ar    1  UNL1        0.0531
     35 C         140.6244  139.8100  166.6359 C.ar    1  UNL1        0.1730
     36 F         139.4581  139.8158  167.5791 F       1  UNL1       -0.2012
     37 C         140.8706  142.6082  168.3462 C.3     1  UNL1        0.1137
     38 N         141.8686  141.5033  168.1639 N.pl3   1  UNL1       -0.2880
     39 C         142.9055  141.2479  169.2174 C.3     1  UNL1        0.1137
@<TRIPOS>BOND
     1    37    38    1
     2    38    39    1
     3    38    26    1
     4    26    27   ar
     5    27    28   ar
     6    28    29   ar
     7    29    25    1
     8    25    24    1
     9    24     1    1
    10     1     2    1
    11     2     3    1
    12     3     4    1
    13     4     9    1
    14     9    11    1
    15    11    12    1
    16    12    13   ar
    17    13    14   ar
    18    14    15   ar
    19    15    16   ar
    20    16    17   ar
    21    16    18    1
    22    18    19   am
    23    19    20    2
    24    19    21    1
    25    21    22    1
    26     4     5    1
    27     5     6    1
    28     4     7    1
    29     7     8    1
    30    29    30   ar
    31    30    31   ar
    32    31    32   ar
    33    32    33   ar
    34    33    34   ar
    35    34    35   ar
    36    35    36    1
    37    35    26   ar
    38    33    28   ar
    39     6     1    1
    40     8     1    1
    41    17    12   ar
    42    22    15    1
    43     9    10    1
    44    18    23    1
@<TRIPOS>MOLECULE
*****
 39 44 0 0 0
SMALL
GASTEIGER

@<TRIPOS>ATOM
      1 C         138.4940  139.0613  163.9486 C.3     1  UNL1        0.0932
      2 C         138.3325  139.3817  162.4921 C.3     1  UNL1        0.0286
      3 C         137.9076  140.7567  162.0693 C.3     1  UNL1        0.0193
      4 C         137.6442  141.8113  163.1029 C.3     1  UNL1        0.0700
      5 C         137.8056  141.4909  164.5594 C.3     1  UNL1        0.0193
      6 C         138.2305  140.1159  164.9822 C.3     1  UNL1        0.0286
      7 C         137.8750  141.0722  163.3830 C.3     1  UNL1        0.1562
      8 O         138.2592  139.8289  163.7653 O.3     1  UNL1       -0.3572
      9 N         137.2192  143.1863  162.6801 N.3     1  UNL1       -0.2926
     10 H         136.3251  143.3710  163.1349 H       1  UNL1        0.1236
     11 C         138.1020  144.3651  162.9656 C.3     1  UNL1        0.1152
     12 C         139.5936  144.2101  162.9340 C.ar    1  UNL1        0.0765
     13 C         140.4198  144.6649  164.1004 C.ar    1  UNL1        0.0193
     14 C         141.9114  144.5100  164.0688 C.ar    1  UNL1        0.0411
     15 C         142.5769  143.9003  162.8707 C.ar    1  UNL1        0.1708
     16 C         141.7507  143.4455  161.7043 C.ar    1  UNL1        0.1682
     17 N         140.2590  143.6004  161.7359 N.ar    1  UNL1       -0.2304
     18 N         142.4161  142.8358  160.5062 N.am    1  UNL1       -0.2639
     19 C         143.9078  142.6808  160.4745 C.2     1  UNL1        0.2718
     20 O         144.5733  142.0711  159.2765 O.2     1  UNL1       -0.2707
     21 C         144.7340  143.1356  161.6410 C.3     1  UNL1        0.2898
     22 O         144.0685  143.7453  162.8391 O.3     1  UNL1       -0.4628
     23 H         141.8739  142.5373  159.7406 H       1  UNL1        0.1565
     24 C         138.9189  137.6863  164.3714 C.3     1  UNL1        0.0319
     25 C         140.3636  137.4028  164.6584 C.3     1  UNL1        0.0304
     26 C         141.8790  140.6261  167.4086 C.ar    1  UNL1        0.1595
     27 N         141.3739  139.5517  166.4919 N.ar    1  UNL1       -0.2272
     28 C         141.9279  139.4289  165.1033 C.ar    1  UNL1        0.0965
     29 C         141.4228  138.3545  164.1866 C.ar    1  UNL1       -0.0014
     30 C         141.9768  138.2317  162.7980 C.ar    1  UNL1        0.0179
     31 C         143.0358  139.1834  162.3263 C.ar    1  UNL1        0.0986
     32 N         143.5410  140.2578  163.2431 N.ar    1  UNL1       -0.2423
     33 C         142.9870  140.3806  164.6316 C.ar    1  UNL1        0.1010
     34 C         143.4921  141.4550  165.5483 C.ar    1  UNL1        0.0531
     35 C         142.9381  141.5778  166.9368 C.ar    1  UNL1        0.1730
     36 F         143.4433  142.6522  167.8536 F       1  UNL1       -0.2012
     37 C         140.3296  141.8250  169.1151 C.3     1  UNL1        0.1137
     38 N         141.3250  140.7489  168.7971 N.pl3   1  UNL1       -0.2880
     39 C         141.7664  139.7954  169.8678 C.3     1  UNL1        0.1137
@<TRIPOS>BOND
     1    37    38    1
     2    38    39    1
     3    38    26    1
     4    26    27   ar
     5    27    28   ar
     6    28    29   ar
     7    29    25    1
     8    25    24    1
     9    24     1    1
    10     1     2    1
    11     2     3    1
    12     3     4    1
    13     4     9    1
    14     9    11    1
    15    11    12    1
    16    12    13   ar
    17    13    14   ar
    18    14    15   ar
    19    15    16   ar
    20    16    17   ar
    21    16    18    1
    22    18    19   am
    23    19    20    2
    24    19    21    1
    25    21    22    1
    26     4     5    1
    27     5     6    1
    28     4     7    1
    29     7     8    1
    30    29    30   ar
    31    30    31   ar
    32    31    32   ar
    33    32    33   ar
    34    33    34   ar
    35    34    35   ar
    36    35    36    1
    37    35    26   ar
    38    33    28   ar
    39     6     1    1
    40     8     1    1
    41    17    12   ar
    42    22    15    1
    43     9    10    1
    44    18    23    1
@<TRIPOS>MOLECULE
*****
 39 44 0 0 0
SMALL
GASTEIGER

@<TRIPOS>ATOM
      1 C         140.7179  137.8401  164.3039 C.3     1  UNL1        0.0932
      2 C         140.8416  138.0221  162.8201 C.3     1  UNL1        0.0286
      3 C         142.1301  138.5127  162.2294 C.3     1  UNL1        0.0193
      4 C         143.2950  138.8215  163.1225 C.3     1  UNL1        0.0700
      5 C         143.1715  138.6395  164.6063 C.3     1  UNL1        0.0193
      6 C         141.8829  138.1489  165.1970 C.3     1  UNL1        0.0286
      7 C         142.6093  138.5551  163.4924 C.3     1  UNL1        0.1562
      8 O         141.4441  138.1114  164.0265 O.3     1  UNL1       -0.3572
      9 N         144.5835  139.3121  162.5318 N.3     1  UNL1       -0.2926
     10 H         144.5925  139.0144  161.5563 H       1  UNL1        0.1236
     11 C         144.9024  140.7779  162.5402 C.3     1  UNL1        0.1152
     12 C         144.0405  141.7373  161.7743 C.ar    1  UNL1        0.0765
     13 C         144.3797  142.0809  160.3542 C.ar    1  UNL1        0.0193
     14 C         143.5179  143.0403  159.5882 C.ar    1  UNL1        0.0411
     15 C         142.3167  143.6561  160.2425 C.ar    1  UNL1        0.1708
     16 C         141.9774  143.3125  161.6626 C.ar    1  UNL1        0.1682
     17 N         142.8394  142.3530  162.4285 N.ar    1  UNL1       -0.2304
     18 N         140.7763  143.9283  162.3168 N.am    1  UNL1       -0.2639
     19 C         139.9143  144.8877  161.5509 C.2     1  UNL1        0.2718
     20 O         138.7132  145.5035  162.2051 O.2     1  UNL1       -0.2707
     21 C         140.2536  145.2313  160.1307 C.3     1  UNL1        0.2898
     22 O         141.4548  144.6155  159.4765 O.3     1  UNL1       -0.4628
     23 H         140.5536  143.7027  163.2489 H       1  UNL1        0.1565
     24 C         139.4294  137.3495  164.8946 C.3     1  UNL1        0.0319
     25 C         138.4261  138.3302  165.4252 C.3     1  UNL1        0.0304
     26 C         140.5984  141.0020  168.3222 C.ar    1  UNL1        0.1595
     27 N         139.8743  140.1114  167.3565 N.ar    1  UNL1       -0.2272
     28 C         139.3014  140.6833  166.0937 C.ar    1  UNL1        0.0965
     29 C         138.5773  139.7927  165.1280 C.ar    1  UNL1       -0.0014
     30 C         138.0043  140.3646  163.8652 C.ar    1  UNL1        0.0179
     31 C         138.1555  141.8271  163.5681 C.ar    1  UNL1        0.0986
     32 N         138.8796  142.7176  164.5338 N.ar    1  UNL1       -0.2423
     33 C         139.4525  142.1458  165.7966 C.ar    1  UNL1        0.1010
     34 C         140.1766  143.0364  166.7622 C.ar    1  UNL1        0.0531
     35 C         140.7496  142.4645  168.0250 C.ar    1  UNL1        0.1730
     36 F         141.4737  143.3551  168.9907 F       1  UNL1       -0.2012
     37 C         140.2738  140.1382  170.7509 C.3     1  UNL1        0.1137
     38 N         141.1713  140.4301  169.5850 N.pl3   1  UNL1       -0.2880
     39 C         142.6418  140.1502  169.6820 C.3     1  UNL1        0.1137
@<TRIPOS>BOND
     1    37    38    1
     2    38    39    1
     3    38    26    1
     4    26    27   ar
     5    27    28   ar
     6    28    29   ar
     7    29    25    1
     8    25    24    1
     9    24     1    1
    10     1     2    1
    11     2     3    1
    12     3     4    1
    13     4     9    1
    14     9    11    1
    15    11    12    1
    16    12    13   ar
    17    13    14   ar
    18    14    15   ar
    19    15    16   ar
    20    16    17   ar
    21    16    18    1
    22    18    19   am
    23    19    20    2
    24    19    21    1
    25    21    22    1
    26     4     5    1
    27     5     6    1
    28     4     7    1
    29     7     8    1
    30    29    30   ar
    31    30    31   ar
    32    31    32   ar
    33    32    33   ar
    34    33    34   ar
    35    34    35   ar
    36    35    36    1
    37    35    26   ar
    38    33    28   ar
    39     6     1    1
    40     8     1    1
    41    17    12   ar
    42    22    15    1
    43     9    10    1
    44    18    23    1
@<TRIPOS>MOLECULE
*****
 39 44 0 0 0
SMALL
GASTEIGER

@<TRIPOS>ATOM
      1 C         139.5915  137.6560  164.6277 C.3     1  UNL1        0.0932
      2 C         141.0259  137.6337  165.0661 C.3     1  UNL1        0.0286
      3 C         142.1227  137.6258  164.0430 C.3     1  UNL1        0.0193
      4 C         141.7853  137.6402  162.5815 C.3     1  UNL1        0.0700
      5 C         140.3510  137.6625  162.1431 C.3     1  UNL1        0.0193
      6 C         139.2540  137.6704  163.1663 C.3     1  UNL1        0.0286
      7 C         141.1499  137.6452  163.1052 C.3     1  UNL1        0.1562
      8 O         140.1580  137.6524  164.0303 O.3     1  UNL1       -0.3572
      9 N         142.8822  137.6323  161.5584 N.3     1  UNL1       -0.2926
     10 H         142.4625  137.9205  160.6746 H       1  UNL1        0.1236
     11 C         144.1001  138.4850  161.7579 C.3     1  UNL1        0.1152
     12 C         143.9708  139.8431  162.3815 C.ar    1  UNL1        0.0765
     13 C         144.8482  140.2245  163.5368 C.ar    1  UNL1        0.0193
     14 C         144.7190  141.5825  164.1604 C.ar    1  UNL1        0.0411
     15 C         143.7123  142.5592  163.6288 C.ar    1  UNL1        0.1708
     16 C         142.8348  142.1779  162.4735 C.ar    1  UNL1        0.1682
     17 N         142.9641  140.8197  161.8499 N.ar    1  UNL1       -0.2304
     18 N         141.8282  143.1545  161.9419 N.am    1  UNL1       -0.2639
     19 C         141.6989  144.5126  162.5655 C.2     1  UNL1        0.2718
     20 O         140.6922  145.4893  162.0338 O.2     1  UNL1       -0.2707
     21 C         142.5763  144.8940  163.7208 C.3     1  UNL1        0.2898
     22 O         143.5830  143.9173  164.2524 O.3     1  UNL1       -0.4628
     23 H         141.2523  142.9042  161.1836 H       1  UNL1        0.1565
     24 C         138.4946  137.6639  165.6508 C.3     1  UNL1        0.0319
     25 C         137.9821  138.9661  166.1909 C.3     1  UNL1        0.0304
     26 C         141.2916  140.9326  168.5212 C.ar    1  UNL1        0.1595
     27 N         140.1884  140.2771  167.7444 N.ar    1  UNL1       -0.2272
     28 C         139.6734  140.9157  166.4886 C.ar    1  UNL1        0.0965
     29 C         138.5702  140.2602  165.7118 C.ar    1  UNL1       -0.0014
     30 C         138.0552  140.8988  164.4561 C.ar    1  UNL1        0.0179
     31 C         138.6434  142.1928  163.9771 C.ar    1  UNL1        0.0986
     32 N         139.7465  142.8483  164.7538 N.ar    1  UNL1       -0.2423
     33 C         140.2615  142.2098  166.0096 C.ar    1  UNL1        0.1010
     34 C         141.3647  142.8653  166.7864 C.ar    1  UNL1        0.0531
     35 C         141.8797  142.2267  168.0421 C.ar    1  UNL1        0.1730
     36 F         142.9829  142.8822  168.8189 F       1  UNL1       -0.2012
     37 C         141.5288  140.9267  171.1084 C.3     1  UNL1        0.1137
     38 N         141.8066  140.2941  169.7769 N.pl3   1  UNL1       -0.2880
     39 C         142.5993  139.0229  169.7013 C.3     1  UNL1        0.1137
@<TRIPOS>BOND
     1    37    38    1
     2    38    39    1
     3    38    26    1
     4    26    27   ar
     5    27    28   ar
     6    28    29   ar
     7    29    25    1
     8    25    24    1
     9    24     1    1
    10     1     2    1
    11     2     3    1
    12     3     4    1
    13     4     9    1
    14     9    11    1
    15    11    12    1
    16    12    13   ar
    17    13    14   ar
    18    14    15   ar
    19    15    16   ar
    20    16    17   ar
    21    16    18    1
    22    18    19   am
    23    19    20    2
    24    19    21    1
    25    21    22    1
    26     4     5    1
    27     5     6    1
    28     4     7    1
    29     7     8    1
    30    29    30   ar
    31    30    31   ar
    32    31    32   ar
    33    32    33   ar
    34    33    34   ar
    35    34    35   ar
    36    35    36    1
    37    35    26   ar
    38    33    28   ar
    39     6     1    1
    40     8     1    1
    41    17    12   ar
    42    22    15    1
    43     9    10    1
    44    18    23    1
@<TRIPOS>MOLECULE
*****
 39 44 0 0 0
SMALL
GASTEIGER

@<TRIPOS>ATOM
      1 C         143.5671  139.1597  162.6487 C.3     1  UNL1        0.0932
      2 C         143.4597  139.1501  164.1449 C.3     1  UNL1        0.0286
      3 C         142.3617  138.3770  164.8131 C.3     1  UNL1        0.0193
      4 C         141.3711  137.6133  163.9852 C.3     1  UNL1        0.0700
      5 C         141.4784  137.6228  162.4891 C.3     1  UNL1        0.0193
      6 C         142.5765  138.3960  161.8208 C.3     1  UNL1        0.0286
      7 C         141.9555  138.0223  163.5739 C.3     1  UNL1        0.1562
      8 O         142.9484  138.7214  162.9697 O.3     1  UNL1       -0.3572
      9 N         140.2731  136.8401  164.6534 N.3     1  UNL1       -0.2926
     10 H         140.6592  136.4720  165.5228 H       1  UNL1        0.1236
     11 C         138.9838  137.5209  165.0062 C.3     1  UNL1        0.1152
     12 C         138.6243  138.8266  164.3615 C.ar    1  UNL1        0.0765
     13 C         138.0717  138.8476  162.9671 C.ar    1  UNL1        0.0193
     14 C         137.7122  140.1534  162.3224 C.ar    1  UNL1        0.0411
     15 C         137.9052  141.4383  163.0722 C.ar    1  UNL1        0.1708
     16 C         138.4577  141.4173  164.4665 C.ar    1  UNL1        0.1682
     17 N         138.8173  140.1114  165.1112 N.ar    1  UNL1       -0.2304
     18 N         138.6507  142.7020  165.2162 N.am    1  UNL1       -0.2639
     19 C         138.2912  144.0079  164.5716 C.2     1  UNL1        0.2718
     20 O         138.4842  145.2926  165.3212 O.2     1  UNL1       -0.2707
     21 C         137.7387  144.0289  163.1772 C.3     1  UNL1        0.2898
     22 O         137.5457  142.7440  162.4275 O.3     1  UNL1       -0.4628
     23 H         139.0134  142.6882  166.1314 H       1  UNL1        0.1565
     24 C         144.6651  139.9328  161.9805 C.3     1  UNL1        0.0319
     25 C         144.4545  141.3728  161.6171 C.3     1  UNL1        0.0304
     26 C         141.1517  144.3829  161.0875 C.ar    1  UNL1        0.1595
     27 N         142.2526  143.3795  161.2640 N.ar    1  UNL1       -0.2272
     28 C         143.0824  143.3886  162.5136 C.ar    1  UNL1        0.0965
     29 C         144.1833  142.3853  162.6902 C.ar    1  UNL1       -0.0014
     30 C         145.0130  142.3943  163.9397 C.ar    1  UNL1        0.0179
     31 C         144.7418  143.4067  165.0128 C.ar    1  UNL1        0.0986
     32 N         143.6408  144.4100  164.8362 N.ar    1  UNL1       -0.2423
     33 C         142.8111  144.4010  163.5867 C.ar    1  UNL1        0.1010
     34 C         141.7102  145.4044  163.4101 C.ar    1  UNL1        0.0531
     35 C         140.8804  145.3953  162.1606 C.ar    1  UNL1        0.1730
     36 F         139.7795  146.3987  161.9841 F       1  UNL1       -0.2012
     37 C         139.4127  143.2162  159.5497 C.3     1  UNL1        0.1137
     38 N         140.3219  144.3739  159.8379 N.pl3   1  UNL1       -0.2880
     39 C         140.4014  145.5226  158.8765 C.3     1  UNL1        0.1137
@<TRIPOS>BOND
     1    37    38    1
     2    38    39    1
     3    38    26    1
     4    26    27   ar
     5    27    28   ar
     6    28    29   ar
     7    29    25    1
     8    25    24    1
     9    24     1    1
    10     1     2    1
    11     2     3    1
    12     3     4    1
    13     4     9    1
    14     9    11    1
    15    11    12    1
    16    12    13   ar
    17    13    14   ar
    18    14    15   ar
    19    15    16   ar
    20    16    17   ar
    21    16    18    1
    22    18    19   am
    23    19    20    2
    24    19    21    1
    25    21    22    1
    26     4     5    1
    27     5     6    1
    28     4     7    1
    29     7     8    1
    30    29    30   ar
    31    30    31   ar
    32    31    32   ar
    33    32    33   ar
    34    33    34   ar
    35    34    35   ar
    36    35    36    1
    37    35    26   ar
    38    33    28   ar
    39     6     1    1
    40     8     1    1
    41    17    12   ar
    42    22    15    1
    43     9    10    1
    44    18    23    1
