@<TRIPOS>MOLECULE
*****
 23 26 0 0 0
SMALL
GASTEIGER

@<TRIPOS>ATOM
      1 C         144.1035  142.0500  164.9053 C.3     1  UNL1        0.0260
      2 C         143.1338  141.7065  165.9969 C.2     1  UNL1       -0.0482
      3 C         143.6090  142.3588  167.2612 C.2     1  UNL1       -0.0345
      4 C         143.3034  142.5496  168.7173 C.3     1  UNL1        0.0279
      5 C         142.3336  142.2060  169.8089 C.3     1  UNL1        0.0344
      6 C         141.0702  141.4593  170.1191 C.3     1  UNL1        0.1216
      7 C         141.4201  142.0481  171.4536 C.3     1  UNL1        0.0323
      8 O         139.9523  140.9574  170.9842 O.3     1  UNL1       -0.3524
      9 C         139.9957  140.5947  169.5294 C.3     1  UNL1        0.1794
     10 C         139.5205  139.9424  168.2650 C.3     1  UNL1        0.1985
     11 O         138.2570  139.1956  168.5752 O.3     1  UNL1       -0.4496
     12 C         137.7819  138.5433  167.3108 C.2     1  UNL1        0.3179
     13 O         136.5527  137.6961  167.1638 O.2     1  UNL1       -0.2501
     14 C         138.7516  138.8869  166.2192 C.3     1  UNL1        0.1185
     15 C         139.8261  139.7515  166.8089 C.3     1  UNL1        0.0550
     16 C         140.7959  140.0951  165.7173 C.3     1  UNL1        0.0086
     17 C         142.0592  140.8418  165.4072 C.3     1  UNL1        0.0218
     18 C         138.6625  138.4436  164.7890 C.3     1  UNL1        0.0834
     19 N         138.2360  139.4146  163.7281 N.3     1  UNL1       -0.2722
     20 C         137.7624  140.8192  163.9574 C.3     1  UNL1        0.0722
     21 C         137.4419  141.4241  162.6228 C.3     1  UNL1        0.0188
     22 C         137.7174  140.3933  161.5685 C.3     1  UNL1        0.0188
     23 C         138.2082  139.1513  162.2517 C.3     1  UNL1        0.0722
@<TRIPOS>BOND
     1     1     2    1
     2     2     3    2
     3     3     4    1
     4     4     5    1
     5     5     6    1
     6     6     7    1
     7     6     8    1
     8     9     8    1
     9     9    10    1
    10    10    11    1
    11    11    12    1
    12    12    13    2
    13    12    14    1
    14    14    18    1
    15    18    19    1
    16    19    20    1
    17    20    21    1
    18    21    22    1
    19    22    23    1
    20    14    15    1
    21    15    16    1
    22    16    17    1
    23    17     2    1
    24     9     6    1
    25    15    10    1
    26    23    19    1
@<TRIPOS>MOLECULE
*****
 23 26 0 0 0
SMALL
GASTEIGER

@<TRIPOS>ATOM
      1 C         138.2153  144.5725  165.0498 C.3     1  UNL1        0.0260
      2 C         138.6470  143.1646  164.7640 C.2     1  UNL1       -0.0482
      3 C         137.7383  142.6062  163.7094 C.2     1  UNL1       -0.0345
      4 C         137.4434  141.3910  162.8810 C.3     1  UNL1        0.0279
      5 C         137.8752  139.9831  162.5953 C.3     1  UNL1        0.0344
      6 C         138.8685  138.9204  162.9613 C.3     1  UNL1        0.1216
      7 C         138.0431  138.2292  161.9169 C.3     1  UNL1        0.0323
      8 O         139.5186  137.5704  162.8931 O.3     1  UNL1       -0.3524
      9 C         140.0441  138.6088  163.8394 C.3     1  UNL1        0.1794
     10 C         140.9528  139.1673  164.8940 C.3     1  UNL1        0.1985
     11 O         141.9462  138.1046  165.2601 O.3     1  UNL1       -0.4496
     12 C         142.8549  138.6631  166.3148 C.2     1  UNL1        0.3179
     13 O         143.9952  137.9407  166.9688 O.2     1  UNL1       -0.2501
     14 C         142.4232  140.0710  166.6005 C.3     1  UNL1        0.1185
     15 C         141.2477  140.3826  165.7225 C.3     1  UNL1        0.0550
     16 C         140.8159  141.7904  166.0082 C.3     1  UNL1        0.0086
     17 C         139.8226  142.8530  165.6421 C.3     1  UNL1        0.0218
     18 C         143.0559  141.0035  167.5904 C.3     1  UNL1        0.0834
     19 N         142.4610  141.1612  168.9584 N.3     1  UNL1       -0.2722
     20 C         142.5586  142.3801  169.8271 C.3     1  UNL1        0.0722
     21 C         141.8221  142.0999  171.1034 C.3     1  UNL1        0.0188
     22 C         141.2693  140.7078  171.0235 C.3     1  UNL1        0.0188
     23 C         141.6642  140.1276  169.6979 C.3     1  UNL1        0.0722
@<TRIPOS>BOND
     1     1     2    1
     2     2     3    2
     3     3     4    1
     4     4     5    1
     5     5     6    1
     6     6     7    1
     7     6     8    1
     8     9     8    1
     9     9    10    1
    10    10    11    1
    11    11    12    1
    12    12    13    2
    13    12    14    1
    14    14    18    1
    15    18    19    1
    16    19    20    1
    17    20    21    1
    18    21    22    1
    19    22    23    1
    20    14    15    1
    21    15    16    1
    22    16    17    1
    23    17     2    1
    24     9     6    1
    25    15    10    1
    26    23    19    1
@<TRIPOS>MOLECULE
*****
 23 26 0 0 0
SMALL
GASTEIGER

@<TRIPOS>ATOM
      1 C         137.9470  139.1126  166.4142 C.3     1  UNL1        0.0260
      2 C         139.1946  139.9077  166.6618 C.2     1  UNL1       -0.0482
      3 C         139.5437  139.7816  168.1151 C.2     1  UNL1       -0.0345
      4 C         140.5306  140.1951  169.1664 C.3     1  UNL1        0.0279
      5 C         141.7782  140.9903  169.4140 C.3     1  UNL1        0.0344
      6 C         142.8099  141.8634  168.7634 C.3     1  UNL1        0.1216
      7 C         143.2825  141.8297  170.1866 C.3     1  UNL1        0.0323
      8 O         144.0381  142.7224  168.7046 O.3     1  UNL1       -0.3524
      9 C         143.2317  142.4809  167.4632 C.3     1  UNL1        0.1794
     10 C         142.8825  142.6070  166.0098 C.3     1  UNL1        0.1985
     11 O         143.9143  143.4801  165.3592 O.3     1  UNL1       -0.4496
     12 C         143.5650  143.6062  163.9059 C.2     1  UNL1        0.3179
     13 O         144.3292  144.3899  162.8803 O.2     1  UNL1       -0.2501
     14 C         142.3174  142.8111  163.6583 C.3     1  UNL1        0.1185
     15 C         141.8956  142.1935  164.9585 C.3     1  UNL1        0.0550
     16 C         140.6480  141.3983  164.7110 C.3     1  UNL1        0.0086
     17 C         139.6164  140.5253  165.3616 C.3     1  UNL1        0.0218
     18 C         141.6150  142.6599  162.3416 C.3     1  UNL1        0.0834
     19 N         141.0350  143.8629  161.6586 N.3     1  UNL1       -0.2722
     20 C         140.3274  145.0024  162.3300 C.3     1  UNL1        0.0722
     21 C         139.9159  145.9813  161.2707 C.3     1  UNL1        0.0188
     22 C         140.3692  145.4469  159.9444 C.3     1  UNL1        0.0188
     23 C         141.0609  144.1376  160.1842 C.3     1  UNL1        0.0722
@<TRIPOS>BOND
     1     1     2    1
     2     2     3    2
     3     3     4    1
     4     4     5    1
     5     5     6    1
     6     6     7    1
     7     6     8    1
     8     9     8    1
     9     9    10    1
    10    10    11    1
    11    11    12    1
    12    12    13    2
    13    12    14    1
    14    14    18    1
    15    18    19    1
    16    19    20    1
    17    20    21    1
    18    21    22    1
    19    22    23    1
    20    14    15    1
    21    15    16    1
    22    16    17    1
    23    17     2    1
    24     9     6    1
    25    15    10    1
    26    23    19    1
@<TRIPOS>MOLECULE
*****
 23 26 0 0 0
SMALL
GASTEIGER

@<TRIPOS>ATOM
      1 C         137.8329  138.7678  166.8393 C.3     1  UNL1        0.0260
      2 C         139.0745  139.5887  167.0250 C.2     1  UNL1       -0.0482
      3 C         139.2410  139.8519  168.4922 C.2     1  UNL1       -0.0345
      4 C         140.1114  140.5220  169.5138 C.3     1  UNL1        0.0279
      5 C         141.3531  141.3428  169.6994 C.3     1  UNL1        0.0344
      6 C         142.4918  142.0009  168.9782 C.3     1  UNL1        0.1216
      7 C         142.7883  142.3441  170.4080 C.3     1  UNL1        0.0323
      8 O         143.7538  142.8017  168.8515 O.3     1  UNL1       -0.3524
      9 C         143.0927  142.2449  167.6256 C.3     1  UNL1        0.1794
     10 C         142.9261  141.9816  166.1583 C.3     1  UNL1        0.1985
     11 O         144.0649  142.6397  165.4370 O.3     1  UNL1       -0.4496
     12 C         143.8983  142.3764  163.9698 C.2     1  UNL1        0.3179
     13 O         144.8129  142.8506  162.8795 O.2     1  UNL1       -0.2501
     14 C         142.6566  141.5556  163.7841 C.3     1  UNL1        0.1185
     15 C         142.0558  141.3116  165.1367 C.3     1  UNL1        0.0550
     16 C         140.8141  140.4907  164.9511 C.3     1  UNL1        0.0086
     17 C         139.6754  139.8327  165.6724 C.3     1  UNL1        0.0218
     18 C         142.1115  141.0649  162.4758 C.3     1  UNL1        0.0834
     19 N         142.6010  139.7702  161.8976 N.3     1  UNL1       -0.2722
     20 C         141.7976  138.8178  161.0625 C.3     1  UNL1        0.0722
     21 C         142.6798  137.6596  160.7018 C.3     1  UNL1        0.0188
     22 C         144.0286  137.8962  161.3140 C.3     1  UNL1        0.0188
     23 C         143.9799  139.2006  162.0530 C.3     1  UNL1        0.0722
@<TRIPOS>BOND
     1     1     2    1
     2     2     3    2
     3     3     4    1
     4     4     5    1
     5     5     6    1
     6     6     7    1
     7     6     8    1
     8     9     8    1
     9     9    10    1
    10    10    11    1
    11    11    12    1
    12    12    13    2
    13    12    14    1
    14    14    18    1
    15    18    19    1
    16    19    20    1
    17    20    21    1
    18    21    22    1
    19    22    23    1
    20    14    15    1
    21    15    16    1
    22    16    17    1
    23    17     2    1
    24     9     6    1
    25    15    10    1
    26    23    19    1
@<TRIPOS>MOLECULE
*****
 23 26 0 0 0
SMALL
GASTEIGER

@<TRIPOS>ATOM
      1 C         145.5293  141.4936  163.8889 C.3     1  UNL1        0.0260
      2 C         144.1390  140.9641  163.6974 C.2     1  UNL1       -0.0482
      3 C         143.9036  140.8016  162.2250 C.2     1  UNL1       -0.0345
      4 C         142.8989  140.3739  161.1965 C.3     1  UNL1        0.0279
      5 C         141.5085  139.8445  161.0051 C.3     1  UNL1        0.0344
      6 C         140.2637  139.4155  161.7236 C.3     1  UNL1        0.1216
      7 C         139.8847  139.2011  160.2882 C.3     1  UNL1        0.0323
      8 O         138.8613  138.8974  161.8453 O.3     1  UNL1       -0.3524
      9 C         139.6398  139.2508  163.0778 C.3     1  UNL1        0.1794
     10 C         139.8752  139.4134  164.5502 C.3     1  UNL1        0.1985
     11 O         138.6303  138.9844  165.2688 O.3     1  UNL1       -0.4496
     12 C         138.8657  139.1469  166.7413 C.2     1  UNL1        0.3179
     13 O         137.8833  138.8348  167.8310 O.2     1  UNL1       -0.2501
     14 C         140.2561  139.6764  166.9328 C.3     1  UNL1        0.1185
     15 C         140.8800  139.8410  165.5787 C.3     1  UNL1        0.0550
     16 C         142.2703  140.3705  165.7701 C.3     1  UNL1        0.0086
     17 C         143.5151  140.7995  165.0515 C.3     1  UNL1        0.0218
     18 C         140.9081  139.9867  168.2475 C.3     1  UNL1        0.0834
     19 N         140.6052  141.2777  168.9486 N.3     1  UNL1       -0.2722
     20 C         140.9095  142.6532  168.4336 C.3     1  UNL1        0.0722
     21 C         140.4372  143.6455  169.4545 C.3     1  UNL1        0.0188
     22 C         139.8409  142.8832  170.6006 C.3     1  UNL1        0.0188
     23 C         139.9448  141.4198  170.2879 C.3     1  UNL1        0.0722
@<TRIPOS>BOND
     1     1     2    1
     2     2     3    2
     3     3     4    1
     4     4     5    1
     5     5     6    1
     6     6     7    1
     7     6     8    1
     8     9     8    1
     9     9    10    1
    10    10    11    1
    11    11    12    1
    12    12    13    2
    13    12    14    1
    14    14    18    1
    15    18    19    1
    16    19    20    1
    17    20    21    1
    18    21    22    1
    19    22    23    1
    20    14    15    1
    21    15    16    1
    22    16    17    1
    23    17     2    1
    24     9     6    1
    25    15    10    1
    26    23    19    1
@<TRIPOS>MOLECULE
*****
 23 26 0 0 0
SMALL
GASTEIGER

@<TRIPOS>ATOM
      1 C         138.9055  144.8447  165.0875 C.3     1  UNL1        0.0260
      2 C         140.1072  144.0294  164.7118 C.2     1  UNL1       -0.0482
      3 C         140.7241  144.6479  163.4925 C.2     1  UNL1       -0.0345
      4 C         141.8482  144.5264  162.5067 C.3     1  UNL1        0.0279
      5 C         143.0499  143.7110  162.1310 C.3     1  UNL1        0.0344
      6 C         143.8702  142.5134  162.5088 C.3     1  UNL1        0.1216
      7 C         144.5950  143.0179  161.2963 C.3     1  UNL1        0.0323
      8 O         144.9919  141.5256  162.3824 O.3     1  UNL1       -0.3524
      9 C         143.9959  141.3909  163.4958 C.3     1  UNL1        0.1794
     10 C         143.3788  140.7724  164.7151 C.3     1  UNL1        0.1985
     11 O         144.1992  139.5747  165.0930 O.3     1  UNL1       -0.4496
     12 C         143.5822  138.9562  166.3122 C.2     1  UNL1        0.3179
     13 O         144.0795  137.7365  167.0298 O.2     1  UNL1       -0.2501
     14 C         142.3805  139.7715  166.6880 C.3     1  UNL1        0.1185
     15 C         142.2548  140.8940  165.7010 C.3     1  UNL1        0.0550
     16 C         141.0531  141.7094  166.0767 C.3     1  UNL1        0.0086
     17 C         140.2328  142.9069  165.6988 C.3     1  UNL1        0.0218
     18 C         141.4652  139.5103  167.8472 C.3     1  UNL1        0.0834
     19 N         141.5368  140.3769  169.0695 N.3     1  UNL1       -0.2722
     20 C         140.5250  140.4265  170.1757 C.3     1  UNL1        0.0722
     21 C         140.9957  141.4263  171.1900 C.3     1  UNL1        0.0188
     22 C         142.2984  141.9947  170.7106 C.3     1  UNL1        0.0188
     23 C         142.6328  141.3461  169.4001 C.3     1  UNL1        0.0722
@<TRIPOS>BOND
     1     1     2    1
     2     2     3    2
     3     3     4    1
     4     4     5    1
     5     5     6    1
     6     6     7    1
     7     6     8    1
     8     9     8    1
     9     9    10    1
    10    10    11    1
    11    11    12    1
    12    12    13    2
    13    12    14    1
    14    14    18    1
    15    18    19    1
    16    19    20    1
    17    20    21    1
    18    21    22    1
    19    22    23    1
    20    14    15    1
    21    15    16    1
    22    16    17    1
    23    17     2    1
    24     9     6    1
    25    15    10    1
    26    23    19    1
@<TRIPOS>MOLECULE
*****
 23 26 0 0 0
SMALL
GASTEIGER

@<TRIPOS>ATOM
      1 C         138.8252  137.9788  163.0775 C.3     1  UNL1        0.0260
      2 C         139.3454  138.7803  164.2339 C.2     1  UNL1       -0.0482
      3 C         138.4789  138.4931  165.4240 C.2     1  UNL1       -0.0345
      4 C         138.2647  138.8110  166.8742 C.3     1  UNL1        0.0279
      5 C         138.7850  139.6125  168.0305 C.3     1  UNL1        0.0344
      6 C         139.8408  140.5913  168.4513 C.3     1  UNL1        0.1216
      7 C         139.0656  140.4036  169.7216 C.3     1  UNL1        0.0323
      8 O         140.5743  141.4922  169.4002 O.3     1  UNL1       -0.3524
      9 C         141.0289  141.3738  167.9757 C.3     1  UNL1        0.1794
     10 C         141.8955  141.6609  166.7855 C.3     1  UNL1        0.1985
     11 O         142.9514  142.6398  167.2062 O.3     1  UNL1       -0.4496
     12 C         143.8180  142.9269  166.0160 C.2     1  UNL1        0.3179
     13 O         144.9977  143.8529  165.9872 O.2     1  UNL1       -0.2501
     14 C         143.2978  142.1255  164.8597 C.3     1  UNL1        0.1185
     15 C         142.1097  141.3430  165.3353 C.3     1  UNL1        0.0550
     16 C         141.5894  140.5416  164.1790 C.3     1  UNL1        0.0086
     17 C         140.5336  139.5627  163.7583 C.3     1  UNL1        0.0218
     18 C         143.8659  142.1093  163.4716 C.3     1  UNL1        0.0834
     19 N         143.1760  142.8583  162.3702 N.3     1  UNL1       -0.2722
     20 C         143.2725  142.5568  160.9040 C.3     1  UNL1        0.0722
     21 C         142.4248  143.5525  160.1692 C.3     1  UNL1        0.0188
     22 C         141.8043  144.4694  161.1813 C.3     1  UNL1        0.0188
     23 C         142.2686  144.0403  162.5416 C.3     1  UNL1        0.0722
@<TRIPOS>BOND
     1     1     2    1
     2     2     3    2
     3     3     4    1
     4     4     5    1
     5     5     6    1
     6     6     7    1
     7     6     8    1
     8     9     8    1
     9     9    10    1
    10    10    11    1
    11    11    12    1
    12    12    13    2
    13    12    14    1
    14    14    18    1
    15    18    19    1
    16    19    20    1
    17    20    21    1
    18    21    22    1
    19    22    23    1
    20    14    15    1
    21    15    16    1
    22    16    17    1
    23    17     2    1
    24     9     6    1
    25    15    10    1
    26    23    19    1
@<TRIPOS>MOLECULE
*****
 23 26 0 0 0
SMALL
GASTEIGER

@<TRIPOS>ATOM
      1 C         144.1026  139.9905  161.4508 C.3     1  UNL1        0.0260
      2 C         143.1749  141.1680  161.3976 C.2     1  UNL1       -0.0482
      3 C         143.2065  141.7203  160.0034 C.2     1  UNL1       -0.0345
      4 C         142.6526  142.7894  159.1087 C.3     1  UNL1        0.0279
      5 C         141.7248  143.9669  159.0556 C.3     1  UNL1        0.0344
      6 C         140.7776  144.8030  159.8640 C.3     1  UNL1        0.1216
      7 C         140.7059  145.4630  158.5189 C.3     1  UNL1        0.0323
      8 O         139.8006  145.9136  160.1132 O.3     1  UNL1       -0.3524
      9 C         140.1727  144.9784  161.2254 C.3     1  UNL1        0.1794
     10 C         140.1411  144.4261  162.6196 C.3     1  UNL1        0.1985
     11 O         139.1938  145.2622  163.4281 O.3     1  UNL1       -0.4496
     12 C         139.1623  144.7098  164.8224 C.2     1  UNL1        0.3179
     13 O         138.3463  145.2416  165.9631 O.2     1  UNL1       -0.2501
     14 C         140.0900  143.5323  164.8756 C.3     1  UNL1        0.1185
     15 C         140.6950  143.3570  163.5143 C.3     1  UNL1        0.0550
     16 C         141.6227  142.1794  163.5674 C.3     1  UNL1        0.0086
     17 C         142.5699  141.3434  162.7589 C.3     1  UNL1        0.0218
     18 C         140.3646  142.6799  166.0788 C.3     1  UNL1        0.0834
     19 N         139.6241  141.3893  166.2684 N.3     1  UNL1       -0.2722
     20 C         139.7007  140.4974  167.4720 C.3     1  UNL1        0.0722
     21 C         138.8009  139.3209  167.2352 C.3     1  UNL1        0.0188
     22 C         138.1681  139.4856  165.8851 C.3     1  UNL1        0.0188
     23 C         138.6769  140.7640  165.2877 C.3     1  UNL1        0.0722
@<TRIPOS>BOND
     1     1     2    1
     2     2     3    2
     3     3     4    1
     4     4     5    1
     5     5     6    1
     6     6     7    1
     7     6     8    1
     8     9     8    1
     9     9    10    1
    10    10    11    1
    11    11    12    1
    12    12    13    2
    13    12    14    1
    14    14    18    1
    15    18    19    1
    16    19    20    1
    17    20    21    1
    18    21    22    1
    19    22    23    1
    20    14    15    1
    21    15    16    1
    22    16    17    1
    23    17     2    1
    24     9     6    1
    25    15    10    1
    26    23    19    1
@<TRIPOS>MOLECULE
*****
 23 26 0 0 0
SMALL
GASTEIGER

@<TRIPOS>ATOM
      1 C         143.7955  138.3324  161.9013 C.3     1  UNL1        0.0260
      2 C         142.6114  138.7473  162.7233 C.2     1  UNL1       -0.0482
      3 C         141.9542  137.5058  163.2492 C.2     1  UNL1       -0.0345
      4 C         140.8162  136.9949  164.0822 C.3     1  UNL1        0.0279
      5 C         139.6320  137.4100  164.9043 C.3     1  UNL1        0.0344
      6 C         138.8541  138.5923  165.4012 C.3     1  UNL1        0.1216
      7 C         138.0927  137.4454  165.9968 C.3     1  UNL1        0.0323
      8 O         137.7596  139.2977  166.1458 O.3     1  UNL1       -0.3524
      9 C         138.7796  140.0903  165.3833 C.3     1  UNL1        0.1794
     10 C         139.4368  141.3319  164.8574 C.3     1  UNL1        0.1985
     11 O         138.6589  142.5143  165.3544 O.3     1  UNL1       -0.4496
     12 C         139.3162  143.7558  164.8284 C.2     1  UNL1        0.3179
     13 O         138.8680  145.1650  165.0803 O.2     1  UNL1       -0.2501
     14 C         140.5003  143.3408  164.0064 C.3     1  UNL1        0.1185
     15 C         140.5748  141.8428  164.0243 C.3     1  UNL1        0.0550
     16 C         141.7590  141.4277  163.2023 C.3     1  UNL1        0.0086
     17 C         142.5368  140.2454  162.7054 C.3     1  UNL1        0.0218
     18 C         141.4441  144.2620  163.2920 C.3     1  UNL1        0.0834
     19 N         141.2101  144.6049  161.8505 N.3     1  UNL1       -0.2722
     20 C         142.0048  144.0983  160.6836 C.3     1  UNL1        0.0722
     21 C         141.4263  144.6948  159.4348 C.3     1  UNL1        0.0188
     22 C         140.2740  145.5701  159.8300 C.3     1  UNL1        0.0188
     23 C         140.1404  145.5145  161.3230 C.3     1  UNL1        0.0722
@<TRIPOS>BOND
     1     1     2    1
     2     2     3    2
     3     3     4    1
     4     4     5    1
     5     5     6    1
     6     6     7    1
     7     6     8    1
     8     9     8    1
     9     9    10    1
    10    10    11    1
    11    11    12    1
    12    12    13    2
    13    12    14    1
    14    14    18    1
    15    18    19    1
    16    19    20    1
    17    20    21    1
    18    21    22    1
    19    22    23    1
    20    14    15    1
    21    15    16    1
    22    16    17    1
    23    17     2    1
    24     9     6    1
    25    15    10    1
    26    23    19    1
