@<TRIPOS>MOLECULE
*****
 34 38 0 0 0
SMALL
GASTEIGER

@<TRIPOS>ATOM
      1 C         140.0510  144.1384  159.3474 C.ar    1  UNL1        0.1317
      2 C         141.0564  144.3409  160.4419 C.ar    1  UNL1        0.0346
      3 C         140.8874  143.6363  161.7553 C.ar    1  UNL1        0.0121
      4 C         139.7130  142.7292  161.9741 C.ar    1  UNL1        0.1076
      5 C         138.7076  142.5267  160.8796 C.ar    1  UNL1        0.1080
      6 N         138.8766  143.2313  159.5663 N.ar    1  UNL1       -0.2289
      7 C         140.1469  148.3262  153.8973 C.3     1  UNL1        0.0104
      8 C         140.8957  147.6614  152.7805 C.3     1  UNL1        0.0325
      9 C         141.4755  146.2920  152.9770 C.3     1  UNL1        0.1420
     10 O         141.3066  145.5874  154.2903 O.3     1  UNL1       -0.3584
     11 C         140.5578  146.2522  155.4072 C.3     1  UNL1        0.0961
     12 C         139.8091  146.9170  156.5241 C.3     1  UNL1        0.0487
     13 C         139.6401  146.2124  157.8375 C.3     1  UNL1        0.0946
     14 N         140.2200  144.8430  158.0340 N.pl3   1  UNL1       -0.2931
     15 C         140.9687  144.1782  156.9171 C.3     1  UNL1        0.0946
     16 C         141.1377  144.8828  155.6037 C.3     1  UNL1        0.0487
     17 C         139.9780  147.6216  155.2107 C.3     1  UNL1        0.0278
     18 C         139.5671  149.6956  153.7008 C.3     1  UNL1        0.0419
     19 O         140.3720  151.5728  155.3065 O.co2   1  UNL1       -0.5492
     20 C         139.3254  150.5846  154.8845 C.2     1  UNL1        0.0503
     21 O         138.0370  150.4855  155.6462 O.co2   1  UNL1       -0.5492
     22 C         139.5441  142.0246  163.2876 C.2     1  UNL1        0.3767
     23 N         140.2693  142.3466  164.5605 N.2     1  UNL1       -0.0308
     24 C         139.7936  141.3953  165.6183 C.2     1  UNL1        0.2320
     25 C         140.1569  141.2401  167.0653 C.2     1  UNL1        0.0537
     26 C         139.5009  140.1749  167.8932 C.2     1  UNL1        0.0714
     27 C         138.4818  139.2650  167.2739 C.2     1  UNL1       -0.0133
     28 C         138.1185  139.4203  165.8269 C.3     1  UNL1        0.1037
     29 C         138.7744  140.4854  164.9991 C.2     1  UNL1        0.2178
     30 N         138.6202  140.8744  163.5586 N.2     1  UNL1       -0.0347
     31 C         139.8642  140.0196  169.3402 C.3     1  UNL1        0.4184
     32 F         140.2274  139.8643  170.7872 F       1  UNL1       -0.1659
     33 F         138.4745  140.4257  169.7326 F       1  UNL1       -0.1659
     34 F         141.2538  139.6135  168.9478 F       1  UNL1       -0.1659
@<TRIPOS>UNITY_ATOM_ATTR
19 1
charge -1
@<TRIPOS>BOND
     1    19    20   ar
     2    20    21   ar
     3    20    18    1
     4    18     7    1
     5     7     8    1
     6     8     9    1
     7     9    10    1
     8    10    11    1
     9    11    12    1
    10    12    13    1
    11    13    14    1
    12    14     1    1
    13     1     2   ar
    14     2     3   ar
    15     3     4   ar
    16     4    22    1
    17    22    23    2
    18    23    24    1
    19    24    25    2
    20    25    26    1
    21    26    31    1
    22    31    32    1
    23    31    33    1
    24    31    34    1
    25    26    27    2
    26    27    28    1
    27    28    29    1
    28    29    30    2
    29     4     5   ar
    30     5     6   ar
    31    14    15    1
    32    15    16    1
    33    11    17    1
    34    17     7    1
    35    16    11    1
    36     6     1   ar
    37    30    22    1
    38    29    24    1
@<TRIPOS>MOLECULE
*****
 34 38 0 0 0
SMALL
GASTEIGER

@<TRIPOS>ATOM
      1 C         139.9109  144.6899  158.4059 C.ar    1  UNL1        0.1317
      2 C         139.4972  143.2506  158.3223 C.ar    1  UNL1        0.0346
      3 C         139.3248  142.4458  159.5764 C.ar    1  UNL1        0.0121
      4 C         139.5660  143.0805  160.9139 C.ar    1  UNL1        0.1076
      5 C         139.9797  144.5198  160.9974 C.ar    1  UNL1        0.1080
      6 N         140.1521  145.3246  159.7434 N.ar    1  UNL1       -0.2289
      7 C         139.9726  149.2668  153.2776 C.3     1  UNL1        0.0104
      8 C         140.7730  148.7140  152.1358 C.3     1  UNL1        0.0325
      9 C         141.4009  147.3564  152.2479 C.3     1  UNL1        0.1420
     10 O         141.2285  146.5516  153.5019 O.3     1  UNL1       -0.3584
     11 C         140.4282  147.1044  154.6437 C.3     1  UNL1        0.0961
     12 C         139.6278  147.6572  155.7857 C.3     1  UNL1        0.0487
     13 C         139.4554  146.8524  157.0396 C.3     1  UNL1        0.0946
     14 N         140.0833  145.4947  157.1518 N.pl3   1  UNL1       -0.2931
     15 C         140.8837  144.9419  156.0100 C.3     1  UNL1        0.0946
     16 C         141.0561  145.7468  154.7559 C.3     1  UNL1        0.0487
     17 C         139.8002  148.4620  154.5316 C.3     1  UNL1        0.0278
     18 C         139.3447  150.6244  153.1655 C.3     1  UNL1        0.0419
     19 O         138.1001  151.1515  155.3843 O.co2   1  UNL1       -0.5492
     20 C         139.1745  151.4754  154.3889 C.2     1  UNL1        0.0503
     21 O         140.0786  152.6504  154.6169 O.co2   1  UNL1       -0.5492
     22 C         139.3936  142.2756  162.1680 C.2     1  UNL1        0.3767
     23 N         138.6551  140.9754  162.2866 N.2     1  UNL1       -0.0308
     24 C         138.7345  140.5260  163.7155 C.2     1  UNL1        0.2320
     25 C         138.1914  139.3178  164.4193 C.2     1  UNL1        0.0537
     26 C         138.4359  139.1321  165.8876 C.2     1  UNL1        0.0714
     27 C         139.2234  140.1546  166.6520 C.2     1  UNL1       -0.0133
     28 C         139.7665  141.3627  165.9482 C.3     1  UNL1        0.1037
     29 C         139.5221  141.5485  164.4800 C.2     1  UNL1        0.2178
     30 N         139.9294  142.6298  163.5235 N.2     1  UNL1       -0.0347
     31 C         137.8928  137.9239  166.5914 C.3     1  UNL1        0.4184
     32 F         137.3497  136.7158  167.2953 F       1  UNL1       -0.1659
     33 F         138.4375  137.0457  165.5042 F       1  UNL1       -0.1659
     34 F         137.3481  138.8022  167.6787 F       1  UNL1       -0.1659
@<TRIPOS>UNITY_ATOM_ATTR
19 1
charge -1
@<TRIPOS>BOND
     1    19    20   ar
     2    20    21   ar
     3    20    18    1
     4    18     7    1
     5     7     8    1
     6     8     9    1
     7     9    10    1
     8    10    11    1
     9    11    12    1
    10    12    13    1
    11    13    14    1
    12    14     1    1
    13     1     2   ar
    14     2     3   ar
    15     3     4   ar
    16     4    22    1
    17    22    23    2
    18    23    24    1
    19    24    25    2
    20    25    26    1
    21    26    31    1
    22    31    32    1
    23    31    33    1
    24    31    34    1
    25    26    27    2
    26    27    28    1
    27    28    29    1
    28    29    30    2
    29     4     5   ar
    30     5     6   ar
    31    14    15    1
    32    15    16    1
    33    11    17    1
    34    17     7    1
    35    16    11    1
    36     6     1   ar
    37    30    22    1
    38    29    24    1
@<TRIPOS>MOLECULE
*****
 34 38 0 0 0
SMALL
GASTEIGER

@<TRIPOS>ATOM
      1 C         141.6139  138.5887  160.4664 C.ar    1  UNL1        0.1317
      2 C         141.8421  140.0335  160.7985 C.ar    1  UNL1        0.0346
      3 C         142.0583  140.4505  162.2230 C.ar    1  UNL1        0.0121
      4 C         142.0464  139.4227  163.3154 C.ar    1  UNL1        0.1076
      5 C         141.8181  137.9779  162.9834 C.ar    1  UNL1        0.1080
      6 N         141.6019  137.5608  161.5589 N.ar    1  UNL1       -0.2289
      7 C         139.3981  137.0823  154.1362 C.3     1  UNL1        0.0104
      8 C         140.5325  136.5033  153.3438 C.3     1  UNL1        0.0325
      9 C         141.8831  136.3414  153.9758 C.3     1  UNL1        0.1420
     10 O         142.0994  136.7584  155.4003 O.3     1  UNL1       -0.3584
     11 C         140.9650  137.3374  156.1928 C.3     1  UNL1        0.0961
     12 C         139.8307  137.9164  156.9853 C.3     1  UNL1        0.0487
     13 C         140.0470  138.3335  158.4098 C.3     1  UNL1        0.0946
     14 N         141.3976  138.1716  159.0418 N.pl3   1  UNL1       -0.2931
     15 C         142.5320  137.5926  158.2494 C.3     1  UNL1        0.0946
     16 C         142.3157  137.1755  156.8248 C.3     1  UNL1        0.0487
     17 C         139.6144  137.4993  155.5607 C.3     1  UNL1        0.0278
     18 C         138.0474  137.2442  153.5041 C.3     1  UNL1        0.0419
     19 O         135.9991  138.0247  154.8987 O.co2   1  UNL1       -0.5492
     20 C         137.1302  138.3380  153.9646 C.2     1  UNL1        0.0503
     21 O         137.3439  139.7451  153.4909 O.co2   1  UNL1       -0.5492
     22 C         142.2626  139.8398  164.7400 C.2     1  UNL1        0.3767
     23 N         142.6031  141.2223  165.2119 N.2     1  UNL1       -0.0308
     24 C         142.7273  141.1845  166.7063 C.2     1  UNL1        0.2320
     25 C         143.0464  142.2486  167.7142 C.2     1  UNL1        0.0537
     26 C         143.1018  141.9068  169.1737 C.2     1  UNL1        0.0714
     27 C         142.8381  140.5010  169.6253 C.2     1  UNL1       -0.0133
     28 C         142.5189  139.4369  168.6174 C.3     1  UNL1        0.1037
     29 C         142.4635  139.7786  167.1580 C.2     1  UNL1        0.2178
     30 N         142.1763  138.9476  165.9427 N.2     1  UNL1       -0.0347
     31 C         143.4210  142.9709  170.1816 C.3     1  UNL1        0.4184
     32 F         143.7402  144.0351  171.1895 F       1  UNL1       -0.1659
     33 F         144.8414  142.4921  170.2374 F       1  UNL1       -0.1659
     34 F         142.0006  143.4498  170.1258 F       1  UNL1       -0.1659
@<TRIPOS>UNITY_ATOM_ATTR
19 1
charge -1
@<TRIPOS>BOND
     1    19    20   ar
     2    20    21   ar
     3    20    18    1
     4    18     7    1
     5     7     8    1
     6     8     9    1
     7     9    10    1
     8    10    11    1
     9    11    12    1
    10    12    13    1
    11    13    14    1
    12    14     1    1
    13     1     2   ar
    14     2     3   ar
    15     3     4   ar
    16     4    22    1
    17    22    23    2
    18    23    24    1
    19    24    25    2
    20    25    26    1
    21    26    31    1
    22    31    32    1
    23    31    33    1
    24    31    34    1
    25    26    27    2
    26    27    28    1
    27    28    29    1
    28    29    30    2
    29     4     5   ar
    30     5     6   ar
    31    14    15    1
    32    15    16    1
    33    11    17    1
    34    17     7    1
    35    16    11    1
    36     6     1   ar
    37    30    22    1
    38    29    24    1
@<TRIPOS>MOLECULE
*****
 34 38 0 0 0
SMALL
GASTEIGER

@<TRIPOS>ATOM
      1 C         141.1700  144.0824  159.8574 C.ar    1  UNL1        0.1317
      2 C         139.9664  143.3452  160.3652 C.ar    1  UNL1        0.0346
      3 C         139.9773  142.7498  161.7419 C.ar    1  UNL1        0.0121
      4 C         141.1917  142.8915  162.6108 C.ar    1  UNL1        0.1076
      5 C         142.3953  143.6287  162.1030 C.ar    1  UNL1        0.1080
      6 N         142.3845  144.2241  160.7263 N.ar    1  UNL1       -0.2289
      7 C         140.2996  147.6831  154.0671 C.3     1  UNL1        0.0104
      8 C         141.1159  147.0597  152.9739 C.3     1  UNL1        0.0325
      9 C         141.9430  145.8409  153.2574 C.3     1  UNL1        0.1420
     10 O         141.9538  145.2454  154.6341 O.3     1  UNL1       -0.3584
     11 C         141.1376  145.8688  155.7272 C.3     1  UNL1        0.0961
     12 C         140.3213  146.4921  156.8205 C.3     1  UNL1        0.0487
     13 C         140.3321  145.8967  158.1972 C.3     1  UNL1        0.0946
     14 N         141.1592  144.6778  158.4807 N.pl3   1  UNL1       -0.2931
     15 C         141.9755  144.0545  157.3875 C.3     1  UNL1        0.0946
     16 C         141.9647  144.6500  156.0107 C.3     1  UNL1        0.0487
     17 C         140.3105  147.0876  155.4438 C.3     1  UNL1        0.0278
     18 C         139.4725  148.9019  153.7836 C.3     1  UNL1        0.0419
     19 O         140.3201  151.0553  154.9646 O.co2   1  UNL1       -0.5492
     20 C         139.3063  149.9571  154.8367 C.2     1  UNL1        0.0503
     21 O         138.1264  149.9140  155.7619 O.co2   1  UNL1       -0.5492
     22 C         141.2025  142.2960  163.9875 C.2     1  UNL1        0.3767
     23 N         142.3981  142.1710  164.8847 N.2     1  UNL1       -0.0308
     24 C         141.9541  141.5188  166.1604 C.2     1  UNL1        0.2320
     25 C         142.6984  141.1421  167.4071 C.2     1  UNL1        0.0537
     26 C         141.9727  140.4874  168.5450 C.2     1  UNL1        0.0714
     27 C         140.5028  140.2093  168.4362 C.2     1  UNL1       -0.0133
     28 C         139.7585  140.5859  167.1895 C.3     1  UNL1        0.1037
     29 C         140.4841  141.2406  166.0517 C.2     1  UNL1        0.2178
     30 N         140.0196  141.7210  164.7087 N.2     1  UNL1       -0.0347
     31 C         142.7171  140.1108  169.7916 C.3     1  UNL1        0.4184
     32 F         143.4614  139.7341  171.0383 F       1  UNL1       -0.1659
     33 F         143.5396  141.3600  169.6780 F       1  UNL1       -0.1659
     34 F         141.8945  138.8615  169.9053 F       1  UNL1       -0.1659
@<TRIPOS>UNITY_ATOM_ATTR
19 1
charge -1
@<TRIPOS>BOND
     1    19    20   ar
     2    20    21   ar
     3    20    18    1
     4    18     7    1
     5     7     8    1
     6     8     9    1
     7     9    10    1
     8    10    11    1
     9    11    12    1
    10    12    13    1
    11    13    14    1
    12    14     1    1
    13     1     2   ar
    14     2     3   ar
    15     3     4   ar
    16     4    22    1
    17    22    23    2
    18    23    24    1
    19    24    25    2
    20    25    26    1
    21    26    31    1
    22    31    32    1
    23    31    33    1
    24    31    34    1
    25    26    27    2
    26    27    28    1
    27    28    29    1
    28    29    30    2
    29     4     5   ar
    30     5     6   ar
    31    14    15    1
    32    15    16    1
    33    11    17    1
    34    17     7    1
    35    16    11    1
    36     6     1   ar
    37    30    22    1
    38    29    24    1
@<TRIPOS>MOLECULE
*****
 34 38 0 0 0
SMALL
GASTEIGER

@<TRIPOS>ATOM
      1 C         143.8880  141.5689  160.4086 C.ar    1  UNL1        0.1317
      2 C         143.8069  140.3823  161.3225 C.ar    1  UNL1        0.0346
      3 C         143.4449  140.5708  162.7659 C.ar    1  UNL1        0.0121
      4 C         143.1640  141.9459  163.2953 C.ar    1  UNL1        0.1076
      5 C         143.2451  143.1325  162.3814 C.ar    1  UNL1        0.1080
      6 N         143.6071  142.9440  160.9380 N.ar    1  UNL1       -0.2289
      7 C         146.1994  141.8262  153.9401 C.3     1  UNL1        0.0104
      8 C         145.6982  140.6269  153.1915 C.3     1  UNL1        0.0325
      9 C         144.8350  139.6159  153.8864 C.3     1  UNL1        0.1420
     10 O         144.4730  139.8043  155.3297 O.3     1  UNL1       -0.3584
     11 C         144.9741  141.0037  156.0783 C.3     1  UNL1        0.0961
     12 C         145.4753  142.2031  156.8269 C.3     1  UNL1        0.0487
     13 C         145.1133  142.3914  158.2703 C.3     1  UNL1        0.0946
     14 N         144.2501  141.3805  158.9651 N.pl3   1  UNL1       -0.2931
     15 C         143.7489  140.1811  158.2166 C.3     1  UNL1        0.0946
     16 C         144.1109  139.9927  156.7731 C.3     1  UNL1        0.0487
     17 C         145.8374  142.0146  155.3834 C.3     1  UNL1        0.0278
     18 C         147.0626  142.8372  153.2452 C.3     1  UNL1        0.0419
     19 O         149.3595  144.0260  152.9979 O.co2   1  UNL1       -0.5492
     20 C         148.5316  142.8996  153.5419 C.2     1  UNL1        0.0503
     21 O         149.1729  141.8356  154.3826 O.co2   1  UNL1       -0.5492
     22 C         142.8020  142.1343  164.7388 C.2     1  UNL1        0.3767
     23 N         141.4387  142.4649  165.2700 N.2     1  UNL1       -0.0308
     24 C         141.5339  142.5602  166.7639 C.2     1  UNL1        0.2320
     25 C         140.5093  142.8592  167.8179 C.2     1  UNL1        0.0537
     26 C         140.9069  142.8865  169.2640 C.2     1  UNL1        0.0714
     27 C         142.3290  142.6147  169.6561 C.2     1  UNL1       -0.0133
     28 C         143.3535  142.3156  168.6021 C.3     1  UNL1        0.1037
     29 C         142.9560  142.2883  167.1561 C.2     1  UNL1        0.2178
     30 N         143.7397  142.0252  165.9045 N.2     1  UNL1       -0.0347
     31 C         139.8824  143.1856  170.3180 C.3     1  UNL1        0.4184
     32 F         138.8578  143.4847  171.3720 F       1  UNL1       -0.1659
     33 F         140.2535  144.6380  170.2666 F       1  UNL1       -0.1659
     34 F         139.5112  141.7331  170.3694 F       1  UNL1       -0.1659
@<TRIPOS>UNITY_ATOM_ATTR
19 1
charge -1
@<TRIPOS>BOND
     1    19    20   ar
     2    20    21   ar
     3    20    18    1
     4    18     7    1
     5     7     8    1
     6     8     9    1
     7     9    10    1
     8    10    11    1
     9    11    12    1
    10    12    13    1
    11    13    14    1
    12    14     1    1
    13     1     2   ar
    14     2     3   ar
    15     3     4   ar
    16     4    22    1
    17    22    23    2
    18    23    24    1
    19    24    25    2
    20    25    26    1
    21    26    31    1
    22    31    32    1
    23    31    33    1
    24    31    34    1
    25    26    27    2
    26    27    28    1
    27    28    29    1
    28    29    30    2
    29     4     5   ar
    30     5     6   ar
    31    14    15    1
    32    15    16    1
    33    11    17    1
    34    17     7    1
    35    16    11    1
    36     6     1   ar
    37    30    22    1
    38    29    24    1
@<TRIPOS>MOLECULE
*****
 34 38 0 0 0
SMALL
GASTEIGER

@<TRIPOS>ATOM
      1 C         142.6451  139.4013  159.4882 C.ar    1  UNL1        0.1317
      2 C         142.8551  138.0426  160.0880 C.ar    1  UNL1        0.0346
      3 C         142.9386  136.8359  159.2010 C.ar    1  UNL1        0.0121
      4 C         142.8121  136.9879  157.7141 C.ar    1  UNL1        0.1076
      5 C         142.6022  138.3466  157.1142 C.ar    1  UNL1        0.1080
      6 N         142.5187  139.5533  158.0013 N.ar    1  UNL1       -0.2289
      7 C         141.0055  144.6016  163.6737 C.3     1  UNL1        0.0104
      8 C         142.2275  145.4349  163.9234 C.3     1  UNL1        0.0325
      9 C         143.5330  145.0615  163.2861 C.3     1  UNL1        0.1420
     10 O         143.6165  143.8548  162.3990 O.3     1  UNL1       -0.3584
     11 C         142.3946  143.0215  162.1494 C.3     1  UNL1        0.0961
     12 C         141.1726  142.1881  161.8996 C.3     1  UNL1        0.0487
     13 C         141.2561  140.9814  161.0126 C.3     1  UNL1        0.0946
     14 N         142.5616  140.6080  160.3753 N.pl3   1  UNL1       -0.2931
     15 C         143.7836  141.4413  160.6249 C.3     1  UNL1        0.0946
     16 C         143.7001  142.6481  161.5120 C.3     1  UNL1        0.0487
     17 C         141.0891  143.3949  162.7867 C.3     1  UNL1        0.0278
     18 C         139.7000  144.9750  164.3111 C.3     1  UNL1        0.0419
     19 O         137.6873  143.3638  164.6324 O.co2   1  UNL1       -0.5492
     20 C         138.4204  144.3778  163.8051 C.2     1  UNL1        0.0503
     21 O         137.8740  144.7946  162.4718 O.co2   1  UNL1       -0.5492
     22 C         142.8956  135.7811  156.8270 C.2     1  UNL1        0.3767
     23 N         143.7147  134.5515  157.0860 N.2     1  UNL1       -0.0308
     24 C         143.5000  133.6026  155.9442 C.2     1  UNL1        0.2320
     25 C         144.0482  132.2359  155.6583 C.2     1  UNL1        0.0537
     26 C         143.6446  131.5125  154.4078 C.2     1  UNL1        0.0714
     27 C         142.6928  132.1558  153.4432 C.2     1  UNL1       -0.0133
     28 C         142.1447  133.5224  153.7291 C.3     1  UNL1        0.1037
     29 C         142.5482  134.2458  154.9796 C.2     1  UNL1        0.2178
     30 N         142.1747  135.5922  155.5252 N.2     1  UNL1       -0.0347
     31 C         144.1927  130.1459  154.1218 C.3     1  UNL1        0.4184
     32 F         144.7409  128.7792  153.8359 F       1  UNL1       -0.1659
     33 F         145.1588  130.2953  155.2595 F       1  UNL1       -0.1659
     34 F         143.2266  129.9964  152.9841 F       1  UNL1       -0.1659
@<TRIPOS>UNITY_ATOM_ATTR
19 1
charge -1
@<TRIPOS>BOND
     1    19    20   ar
     2    20    21   ar
     3    20    18    1
     4    18     7    1
     5     7     8    1
     6     8     9    1
     7     9    10    1
     8    10    11    1
     9    11    12    1
    10    12    13    1
    11    13    14    1
    12    14     1    1
    13     1     2   ar
    14     2     3   ar
    15     3     4   ar
    16     4    22    1
    17    22    23    2
    18    23    24    1
    19    24    25    2
    20    25    26    1
    21    26    31    1
    22    31    32    1
    23    31    33    1
    24    31    34    1
    25    26    27    2
    26    27    28    1
    27    28    29    1
    28    29    30    2
    29     4     5   ar
    30     5     6   ar
    31    14    15    1
    32    15    16    1
    33    11    17    1
    34    17     7    1
    35    16    11    1
    36     6     1   ar
    37    30    22    1
    38    29    24    1
@<TRIPOS>MOLECULE
*****
 34 38 0 0 0
SMALL
GASTEIGER

@<TRIPOS>ATOM
      1 C         139.7282  140.8671  163.1933 C.ar    1  UNL1        0.1317
      2 C         138.7488  141.9754  162.9434 C.ar    1  UNL1        0.0346
      3 C         138.2194  142.2105  161.5598 C.ar    1  UNL1        0.0121
      4 C         138.6693  141.3373  160.4261 C.ar    1  UNL1        0.1076
      5 C         139.6487  140.2291  160.6761 C.ar    1  UNL1        0.1080
      6 N         140.1781  139.9940  162.0597 N.ar    1  UNL1       -0.2289
      7 C         141.2942  140.7061  169.8845 C.3     1  UNL1        0.0104
      8 C         142.3755  139.6915  170.1114 C.3     1  UNL1        0.0325
      9 C         142.9273  138.9121  168.9547 C.3     1  UNL1        0.1420
     10 O         142.3979  139.1472  167.5711 O.3     1  UNL1       -0.3584
     11 C         141.3166  140.1617  167.3442 C.3     1  UNL1        0.0961
     12 C         140.2353  141.1763  167.1173 C.3     1  UNL1        0.0487
     13 C         139.7059  141.4114  165.7337 C.3     1  UNL1        0.0946
     14 N         140.2577  140.6320  164.5770 N.pl3   1  UNL1       -0.2931
     15 C         141.3389  139.6174  164.8039 C.3     1  UNL1        0.0946
     16 C         141.8684  139.3823  166.1875 C.3     1  UNL1        0.0487
     17 C         140.7648  140.9412  168.5009 C.3     1  UNL1        0.0278
     18 C         140.7424  141.4855  171.0412 C.3     1  UNL1        0.0419
     19 O         141.3308  143.8854  170.2384 O.co2   1  UNL1       -0.5492
     20 C         140.3616  142.9252  170.8619 C.2     1  UNL1        0.0503
     21 O         139.0115  143.4048  171.3062 O.co2   1  UNL1       -0.5492
     22 C         138.1398  141.5725  159.0425 C.2     1  UNL1        0.3767
     23 N         137.5201  140.5399  158.1483 N.2     1  UNL1       -0.0308
     24 C         137.1344  141.2107  156.8633 C.2     1  UNL1        0.2320
     25 C         136.4852  140.6908  155.6150 C.2     1  UNL1        0.0537
     26 C         136.2173  141.6181  154.4668 C.2     1  UNL1        0.0714
     27 C         136.5987  143.0654  154.5669 C.2     1  UNL1       -0.0133
     28 C         137.2479  143.5853  155.8152 C.3     1  UNL1        0.1037
     29 C         137.5157  142.6581  156.9633 C.2     1  UNL1        0.2178
     30 N         138.1371  142.8816  158.3101 N.2     1  UNL1       -0.0347
     31 C         135.5681  141.0982  153.2185 C.3     1  UNL1        0.4184
     32 F         134.9189  140.5782  151.9703 F       1  UNL1       -0.1659
     33 F         135.7944  139.6912  153.6869 F       1  UNL1       -0.1659
     34 F         135.3419  142.5051  152.7502 F       1  UNL1       -0.1659
@<TRIPOS>UNITY_ATOM_ATTR
19 1
charge -1
@<TRIPOS>BOND
     1    19    20   ar
     2    20    21   ar
     3    20    18    1
     4    18     7    1
     5     7     8    1
     6     8     9    1
     7     9    10    1
     8    10    11    1
     9    11    12    1
    10    12    13    1
    11    13    14    1
    12    14     1    1
    13     1     2   ar
    14     2     3   ar
    15     3     4   ar
    16     4    22    1
    17    22    23    2
    18    23    24    1
    19    24    25    2
    20    25    26    1
    21    26    31    1
    22    31    32    1
    23    31    33    1
    24    31    34    1
    25    26    27    2
    26    27    28    1
    27    28    29    1
    28    29    30    2
    29     4     5   ar
    30     5     6   ar
    31    14    15    1
    32    15    16    1
    33    11    17    1
    34    17     7    1
    35    16    11    1
    36     6     1   ar
    37    30    22    1
    38    29    24    1
@<TRIPOS>MOLECULE
*****
 34 38 0 0 0
SMALL
GASTEIGER

@<TRIPOS>ATOM
      1 C         142.5028  139.1549  162.4896 C.ar    1  UNL1        0.1317
      2 C         143.7078  138.5161  161.8653 C.ar    1  UNL1        0.0346
      3 C         143.6377  137.9962  160.4601 C.ar    1  UNL1        0.0121
      4 C         142.3626  138.1151  159.6791 C.ar    1  UNL1        0.1076
      5 C         141.1576  138.7539  160.3034 C.ar    1  UNL1        0.1080
      6 N         141.2276  139.2739  161.7086 N.ar    1  UNL1       -0.2289
      7 C         142.1599  140.4552  169.2307 C.3     1  UNL1        0.0104
      8 C         142.8529  141.7545  169.5159 C.3     1  UNL1        0.0325
      9 C         143.4759  142.5340  168.3960 C.3     1  UNL1        0.1420
     10 O         143.4059  142.0141  166.9907 O.3     1  UNL1       -0.3584
     11 C         142.7129  140.7148  166.7055 C.3     1  UNL1        0.0961
     12 C         142.0198  139.4154  166.4201 C.3     1  UNL1        0.0487
     13 C         141.9498  138.8955  165.0149 C.3     1  UNL1        0.0946
     14 N         142.5728  139.6749  163.8949 N.pl3   1  UNL1       -0.2931
     15 C         143.2658  140.9742  164.1802 C.3     1  UNL1        0.0946
     16 C         143.3359  141.4942  165.5855 C.3     1  UNL1        0.0487
     17 C         142.0899  139.9353  167.8254 C.3     1  UNL1        0.0278
     18 C         141.5369  139.6758  170.3507 C.3     1  UNL1        0.0419
     19 O         140.4504  141.4545  171.9018 O.co2   1  UNL1       -0.5492
     20 C         140.3324  140.2172  171.0619 C.2     1  UNL1        0.0503
     21 O         139.0098  139.5214  170.9334 O.co2   1  UNL1       -0.5492
     22 C         142.2925  137.5952  158.2738 C.2     1  UNL1        0.3767
     23 N         142.4130  136.1590  157.8581 N.2     1  UNL1       -0.0308
     24 C         142.2847  136.0964  156.3649 C.2     1  UNL1        0.2320
     25 C         142.3239  134.9474  155.4014 C.2     1  UNL1        0.0537
     26 C         142.1633  135.1959  153.9308 C.2     1  UNL1        0.0714
     27 C         141.9635  136.5933  153.4238 C.2     1  UNL1       -0.0133
     28 C         141.9243  137.7423  154.3873 C.3     1  UNL1        0.1037
     29 C         142.0848  137.4939  155.8578 C.2     1  UNL1        0.2178
     30 N         142.0897  138.4201  157.0376 N.2     1  UNL1       -0.0347
     31 C         142.2026  134.0469  152.9674 C.3     1  UNL1        0.4184
     32 F         142.2418  132.8979  152.0039 F       1  UNL1       -0.1659
     33 F         141.4290  134.8570  151.9697 F       1  UNL1       -0.1659
     34 F         142.9761  133.2367  153.9650 F       1  UNL1       -0.1659
@<TRIPOS>UNITY_ATOM_ATTR
19 1
charge -1
@<TRIPOS>BOND
     1    19    20   ar
     2    20    21   ar
     3    20    18    1
     4    18     7    1
     5     7     8    1
     6     8     9    1
     7     9    10    1
     8    10    11    1
     9    11    12    1
    10    12    13    1
    11    13    14    1
    12    14     1    1
    13     1     2   ar
    14     2     3   ar
    15     3     4   ar
    16     4    22    1
    17    22    23    2
    18    23    24    1
    19    24    25    2
    20    25    26    1
    21    26    31    1
    22    31    32    1
    23    31    33    1
    24    31    34    1
    25    26    27    2
    26    27    28    1
    27    28    29    1
    28    29    30    2
    29     4     5   ar
    30     5     6   ar
    31    14    15    1
    32    15    16    1
    33    11    17    1
    34    17     7    1
    35    16    11    1
    36     6     1   ar
    37    30    22    1
    38    29    24    1
@<TRIPOS>MOLECULE
*****
 34 38 0 0 0
SMALL
GASTEIGER

@<TRIPOS>ATOM
      1 C         141.9085  136.9810  157.2484 C.ar    1  UNL1        0.1317
      2 C         140.5687  137.6456  157.1347 C.ar    1  UNL1        0.0346
      3 C         140.2608  138.8588  157.9613 C.ar    1  UNL1        0.0121
      4 C         141.2927  139.4074  158.9016 C.ar    1  UNL1        0.1076
      5 C         142.6326  138.7427  159.0153 C.ar    1  UNL1        0.1080
      6 N         142.9405  137.5295  158.1887 N.ar    1  UNL1       -0.2289
      7 C         143.9790  131.0238  154.5142 C.3     1  UNL1        0.0104
      8 C         143.4482  130.9148  153.1156 C.3     1  UNL1        0.0325
      9 C         142.6095  132.0189  152.5434 C.3     1  UNL1        0.1420
     10 O         142.3015  133.2321  153.3700 O.3     1  UNL1       -0.3584
     11 C         142.8323  133.3412  154.7686 C.3     1  UNL1        0.0961
     12 C         143.3632  133.4503  156.1674 C.3     1  UNL1        0.0487
     13 C         143.0552  134.6635  156.9939 C.3     1  UNL1        0.0946
     14 N         142.2164  135.7677  156.4218 N.pl3   1  UNL1       -0.2931
     15 C         141.6856  135.6586  155.0231 C.3     1  UNL1        0.0946
     16 C         141.9936  134.4454  154.1965 C.3     1  UNL1        0.0487
     17 C         143.6711  132.2370  155.3407 C.3     1  UNL1        0.0278
     18 C         144.8178  129.9197  155.0863 C.3     1  UNL1        0.0419
     19 O         143.3652  127.9527  155.9645 O.co2   1  UNL1       -0.5492
     20 C         144.2980  129.0975  156.2281 C.2     1  UNL1        0.0503
     21 O         144.7108  129.4201  157.6337 O.co2   1  UNL1       -0.5492
     22 C         140.9848  140.6206  159.7282 C.2     1  UNL1        0.3767
     23 N         140.2993  140.6277  161.0624 N.2     1  UNL1       -0.0308
     24 C         140.1991  142.0513  161.5245 C.2     1  UNL1        0.2320
     25 C         139.6207  142.6656  162.7646 C.2     1  UNL1        0.0537
     26 C         139.6658  144.1527  162.9561 C.2     1  UNL1        0.0714
     27 C         140.2895  145.0254  161.9075 C.2     1  UNL1       -0.0133
     28 C         140.8679  144.4110  160.6674 C.3     1  UNL1        0.1037
     29 C         140.8228  142.9240  160.4759 C.2     1  UNL1        0.2178
     30 N         141.3083  142.0398  159.3657 N.2     1  UNL1       -0.0347
     31 C         139.0874  144.7671  164.1962 C.3     1  UNL1        0.4184
     32 F         138.5089  145.3815  165.4364 F       1  UNL1       -0.1659
     33 F         137.7064  144.4227  163.7227 F       1  UNL1       -0.1659
     34 F         140.4683  145.1115  164.6698 F       1  UNL1       -0.1659
@<TRIPOS>UNITY_ATOM_ATTR
19 1
charge -1
@<TRIPOS>BOND
     1    19    20   ar
     2    20    21   ar
     3    20    18    1
     4    18     7    1
     5     7     8    1
     6     8     9    1
     7     9    10    1
     8    10    11    1
     9    11    12    1
    10    12    13    1
    11    13    14    1
    12    14     1    1
    13     1     2   ar
    14     2     3   ar
    15     3     4   ar
    16     4    22    1
    17    22    23    2
    18    23    24    1
    19    24    25    2
    20    25    26    1
    21    26    31    1
    22    31    32    1
    23    31    33    1
    24    31    34    1
    25    26    27    2
    26    27    28    1
    27    28    29    1
    28    29    30    2
    29     4     5   ar
    30     5     6   ar
    31    14    15    1
    32    15    16    1
    33    11    17    1
    34    17     7    1
    35    16    11    1
    36     6     1   ar
    37    30    22    1
    38    29    24    1
