@<TRIPOS>MOLECULE
*****
 37 41 0 0 0
SMALL
GASTEIGER

@<TRIPOS>ATOM
      1 C         141.0886  141.8943  162.9384 C.3     1  UNL1        0.2309
      2 N         142.0278  142.5373  161.9614 N.2     1  UNL1       -0.0614
      3 C         141.4674  143.8795  161.5945 C.2     1  UNL1        0.3157
      4 N         142.0842  144.8626  160.6442 N.pl3   1  UNL1       -0.2464
      5 C         140.1819  144.0659  162.3446 C.ar    1  UNL1        0.1094
      6 C         139.1943  145.1944  162.3787 C.ar    1  UNL1        0.1470
      7 F         139.4285  146.4213  161.5481 F       1  UNL1       -0.2039
      8 C         137.9726  145.0960  163.2433 C.ar    1  UNL1        0.0299
      9 C         137.7385  143.8690  164.0739 C.ar    1  UNL1        0.0021
     10 C         138.7260  142.7406  164.0398 C.ar    1  UNL1        0.0008
     11 C         139.9477  142.8390  163.1752 C.ar    1  UNL1        0.0390
     12 H         142.9351  144.6482  160.1977 H       1  UNL1        0.2884
     13 H         141.6382  145.7222  160.4670 H       1  UNL1        0.2884
     14 C         139.7711  140.3612  166.3537 C.ar    1  UNL1        0.0014
     15 C         138.8903  139.2574  165.8478 C.ar    1  UNL1        0.0000
     16 C         138.7423  139.0326  164.3721 C.ar    1  UNL1       -0.0002
     17 C         139.4750  139.9115  163.4023 C.ar    1  UNL1        0.0004
     18 C         140.3558  141.0154  163.9082 C.ar    1  UNL1        0.0297
     19 C         140.5039  141.2402  165.3838 C.ar    1  UNL1        0.0004
     20 C         141.0969  141.7745  169.8170 C.ar    1  UNL1        0.0876
     21 C         140.2156  141.0360  170.7805 C.ar    1  UNL1        0.1091
     22 N         139.1863  140.0727  170.2683 N.ar    1  UNL1       -0.2416
     23 C         139.0381  139.8477  168.7927 C.ar    1  UNL1        0.0989
     24 C         139.9192  140.5861  167.8293 C.ar    1  UNL1        0.0198
     25 C         140.9487  141.5495  168.3414 C.ar    1  UNL1        0.0134
     26 N         143.1557  143.7012  170.8412 N.1     1  UNL1       -0.1908
     27 C         142.1262  142.7378  170.3291 C.1     1  UNL1        0.1020
     28 C         142.0762  140.7658  162.9042 C.ar    1  UNL1        0.0327
     29 C         142.5421  140.2164  161.5885 C.ar    1  UNL1        0.0211
     30 C         143.5297  139.0880  161.5544 C.ar    1  UNL1        0.0986
     31 N         144.0514  138.5089  162.8359 N.ar    1  UNL1       -0.2399
     32 C         143.5855  139.0583  164.1517 C.ar    1  UNL1        0.1525
     33 C         142.5979  140.1867  164.1858 C.ar    1  UNL1        0.0235
     34 C         144.1072  138.4791  165.4333 C.3     1  UNL1        0.4348
     35 F         144.6290  137.9001  166.7148 F       1  UNL1       -0.1644
     36 F         142.7129  138.0876  165.8240 F       1  UNL1       -0.1644
     37 F         145.5015  138.8707  165.0426 F       1  UNL1       -0.1644
@<TRIPOS>BOND
     1    26    27    3
     2    27    20    1
     3    20    21   ar
     4    21    22   ar
     5    22    23   ar
     6    23    24   ar
     7    24    14    1
     8    14    15   ar
     9    15    16   ar
    10    16    17   ar
    11    17    18   ar
    12    18     1    1
    13     1    28    1
    14    28    29   ar
    15    29    30   ar
    16    30    31   ar
    17    31    32   ar
    18    32    34    1
    19    34    35    1
    20    34    36    1
    21    34    37    1
    22    32    33   ar
    23     1     2    1
    24     2     3    2
    25     3     4    1
    26     3     5    1
    27     5     6   ar
    28     6     7    1
    29     6     8   ar
    30     8     9   ar
    31     9    10   ar
    32    10    11   ar
    33    18    19   ar
    34    24    25   ar
    35    25    20   ar
    36    19    14   ar
    37    11     1    1
    38    33    28   ar
    39    11     5   ar
    40     4    12    1
    41     4    13    1
@<TRIPOS>MOLECULE
*****
 37 41 0 0 0
SMALL
GASTEIGER

@<TRIPOS>ATOM
      1 C         140.6822  141.3030  163.1807 C.3     1  UNL1        0.2309
      2 N         139.6006  141.5149  162.1633 N.2     1  UNL1       -0.0614
      3 C         139.8046  142.8659  161.5444 C.2     1  UNL1        0.3157
      4 N         138.9508  143.4851  160.4778 N.pl3   1  UNL1       -0.2464
      5 C         141.0124  143.4890  162.1792 C.ar    1  UNL1        0.1094
      6 C         141.6883  144.8112  161.9671 C.ar    1  UNL1        0.1470
      7 F         141.1458  145.7771  160.9558 F       1  UNL1       -0.2039
      8 C         142.9066  145.1674  162.7663 C.ar    1  UNL1        0.0299
      9 C         143.4490  144.2015  163.7776 C.ar    1  UNL1        0.0021
     10 C         142.7731  142.8793  163.9897 C.ar    1  UNL1        0.0008
     11 C         141.5548  142.5231  163.1906 C.ar    1  UNL1        0.0390
     12 H         138.1746  142.9948  160.1222 H       1  UNL1        0.2884
     13 H         139.1665  144.3818  160.1334 H       1  UNL1        0.2884
     14 C         142.3655  140.7448  166.7311 C.ar    1  UNL1        0.0014
     15 C         143.5034  139.8382  166.3660 C.ar    1  UNL1        0.0000
     16 C         143.7009  139.4199  164.9391 C.ar    1  UNL1       -0.0002
     17 C         142.7605  139.9082  163.8773 C.ar    1  UNL1        0.0004
     18 C         141.6226  140.8148  164.2424 C.ar    1  UNL1        0.0297
     19 C         141.4251  141.2331  165.6694 C.ar    1  UNL1        0.0004
     20 C         141.2201  142.8418  169.8997 C.ar    1  UNL1        0.0876
     21 C         141.7726  142.0000  171.0116 C.ar    1  UNL1        0.1091
     22 N         142.5227  140.7398  170.6966 N.ar    1  UNL1       -0.2416
     23 C         142.7203  140.3214  169.2698 C.ar    1  UNL1        0.0989
     24 C         142.1679  141.1631  168.1580 C.ar    1  UNL1        0.0198
     25 C         141.4177  142.4234  168.4730 C.ar    1  UNL1        0.0134
     26 N         139.7198  145.3622  170.5296 N.1     1  UNL1       -0.1908
     27 C         140.4700  144.1020  170.2147 C.1     1  UNL1        0.1020
     28 C         140.0063  139.9808  163.3928 C.ar    1  UNL1        0.0327
     29 C         140.0249  138.9462  162.3069 C.ar    1  UNL1        0.0211
     30 C         139.3490  137.6241  162.5190 C.ar    1  UNL1        0.0986
     31 N         138.6544  137.3365  163.8170 N.ar    1  UNL1       -0.2399
     32 C         138.6357  138.3712  164.9029 C.ar    1  UNL1        0.1525
     33 C         139.3117  139.6933  164.6908 C.ar    1  UNL1        0.0235
     34 C         137.9411  138.0836  166.2009 C.3     1  UNL1        0.4348
     35 F         137.2465  137.7960  167.4989 F       1  UNL1       -0.1644
     36 F         138.1211  136.6122  165.9712 F       1  UNL1       -0.1644
     37 F         137.7611  139.5549  166.4305 F       1  UNL1       -0.1644
@<TRIPOS>BOND
     1    26    27    3
     2    27    20    1
     3    20    21   ar
     4    21    22   ar
     5    22    23   ar
     6    23    24   ar
     7    24    14    1
     8    14    15   ar
     9    15    16   ar
    10    16    17   ar
    11    17    18   ar
    12    18     1    1
    13     1    28    1
    14    28    29   ar
    15    29    30   ar
    16    30    31   ar
    17    31    32   ar
    18    32    34    1
    19    34    35    1
    20    34    36    1
    21    34    37    1
    22    32    33   ar
    23     1     2    1
    24     2     3    2
    25     3     4    1
    26     3     5    1
    27     5     6   ar
    28     6     7    1
    29     6     8   ar
    30     8     9   ar
    31     9    10   ar
    32    10    11   ar
    33    18    19   ar
    34    24    25   ar
    35    25    20   ar
    36    19    14   ar
    37    11     1    1
    38    33    28   ar
    39    11     5   ar
    40     4    12    1
    41     4    13    1
@<TRIPOS>MOLECULE
*****
 37 41 0 0 0
SMALL
GASTEIGER

@<TRIPOS>ATOM
      1 C         139.4255  139.4424  165.9905 C.3     1  UNL1        0.2309
      2 N         138.3678  138.3932  166.1655 N.2     1  UNL1       -0.0614
      3 C         137.8311  138.5046  167.5617 C.2     1  UNL1        0.3157
      4 N         136.7570  137.6483  168.1643 N.pl3   1  UNL1       -0.2464
      5 C         138.5570  139.6226  168.2496 C.ar    1  UNL1        0.1094
      6 C         138.4480  140.1877  169.6348 C.ar    1  UNL1        0.1470
      7 F         137.4626  139.6081  170.6059 F       1  UNL1       -0.2039
      8 C         139.3244  141.3324  170.0489 C.ar    1  UNL1        0.0299
      9 C         140.3098  141.9120  169.0777 C.ar    1  UNL1        0.0021
     10 C         140.4188  141.3469  167.6926 C.ar    1  UNL1        0.0008
     11 C         139.5424  140.2022  167.2785 C.ar    1  UNL1        0.0390
     12 H         136.3381  136.9354  167.6300 H       1  UNL1        0.2884
     13 H         136.4710  137.7991  169.0942 H       1  UNL1        0.2884
     14 C         141.2545  142.4343  164.1321 C.ar    1  UNL1        0.0014
     15 C         142.6668  142.2354  164.5966 C.ar    1  UNL1        0.0000
     16 C         142.9987  141.1056  165.5257 C.ar    1  UNL1       -0.0002
     17 C         141.9183  140.1746  165.9904 C.ar    1  UNL1        0.0004
     18 C         140.5059  140.3734  165.5259 C.ar    1  UNL1        0.0297
     19 C         140.1740  141.5032  164.5967 C.ar    1  UNL1        0.0004
     20 C         141.2182  144.7547  160.9128 C.ar    1  UNL1        0.0876
     21 C         140.2586  145.8237  161.3446 C.ar    1  UNL1        0.1091
     22 N         139.6309  145.7628  162.7056 N.ar    1  UNL1       -0.2416
     23 C         139.9629  144.6330  163.6348 C.ar    1  UNL1        0.0989
     24 C         140.9225  143.5641  163.2030 C.ar    1  UNL1        0.0198
     25 C         141.5502  143.6249  161.8419 C.ar    1  UNL1        0.0134
     26 N         142.4735  144.8763  158.1907 N.1     1  UNL1       -0.1908
     27 C         141.8459  144.8155  159.5518 C.1     1  UNL1        0.1020
     28 C         139.5344  138.8772  164.6052 C.ar    1  UNL1        0.0327
     29 C         140.6022  137.8730  164.2868 C.ar    1  UNL1        0.0211
     30 C         140.7112  137.3078  162.9017 C.ar    1  UNL1        0.0986
     31 N         139.7524  137.7469  161.8350 N.ar    1  UNL1       -0.2399
     32 C         138.6846  138.7510  162.1534 C.ar    1  UNL1        0.1525
     33 C         138.5756  139.3162  163.5386 C.ar    1  UNL1        0.0235
     34 C         137.7257  139.1900  161.0866 C.3     1  UNL1        0.4348
     35 F         136.7669  139.6290  160.0199 F       1  UNL1       -0.1644
     36 F         138.6188  140.3507  160.7616 F       1  UNL1       -0.1644
     37 F         136.8328  138.0295  161.4117 F       1  UNL1       -0.1644
@<TRIPOS>BOND
     1    26    27    3
     2    27    20    1
     3    20    21   ar
     4    21    22   ar
     5    22    23   ar
     6    23    24   ar
     7    24    14    1
     8    14    15   ar
     9    15    16   ar
    10    16    17   ar
    11    17    18   ar
    12    18     1    1
    13     1    28    1
    14    28    29   ar
    15    29    30   ar
    16    30    31   ar
    17    31    32   ar
    18    32    34    1
    19    34    35    1
    20    34    36    1
    21    34    37    1
    22    32    33   ar
    23     1     2    1
    24     2     3    2
    25     3     4    1
    26     3     5    1
    27     5     6   ar
    28     6     7    1
    29     6     8   ar
    30     8     9   ar
    31     9    10   ar
    32    10    11   ar
    33    18    19   ar
    34    24    25   ar
    35    25    20   ar
    36    19    14   ar
    37    11     1    1
    38    33    28   ar
    39    11     5   ar
    40     4    12    1
    41     4    13    1
@<TRIPOS>MOLECULE
*****
 37 41 0 0 0
SMALL
GASTEIGER

@<TRIPOS>ATOM
      1 C         141.1715  141.9654  163.0783 C.3     1  UNL1        0.2309
      2 N         142.0783  142.6415  162.0930 N.2     1  UNL1       -0.0614
      3 C         141.4478  143.9450  161.7016 C.2     1  UNL1        0.3157
      4 N         142.0142  144.9438  160.7364 N.pl3   1  UNL1       -0.2464
      5 C         140.1513  144.0746  162.4449 C.ar    1  UNL1        0.1094
      6 C         139.1042  145.1485  162.4570 C.ar    1  UNL1        0.1470
      7 F         139.2749  146.3720  161.6061 F       1  UNL1       -0.2039
      8 C         137.8864  144.9990  163.3198 C.ar    1  UNL1        0.0299
      9 C         137.7157  143.7755  164.1706 C.ar    1  UNL1        0.0021
     10 C         138.7628  142.7015  164.1586 C.ar    1  UNL1        0.0008
     11 C         139.9806  142.8511  163.2958 C.ar    1  UNL1        0.0390
     12 H         142.8770  144.7681  160.2960 H       1  UNL1        0.2884
     13 H         141.5231  145.7749  160.5432 H       1  UNL1        0.2884
     14 C         139.9611  140.3958  166.5165 C.ar    1  UNL1        0.0014
     15 C         139.1080  139.2634  166.0264 C.ar    1  UNL1        0.0000
     16 C         138.9428  139.0317  164.5536 C.ar    1  UNL1       -0.0002
     17 C         139.6306  139.9324  163.5709 C.ar    1  UNL1        0.0004
     18 C         140.4837  141.0648  164.0610 C.ar    1  UNL1        0.0297
     19 C         140.6489  141.2965  165.5337 C.ar    1  UNL1        0.0004
     20 C         141.3057  141.8480  169.9563 C.ar    1  UNL1        0.0876
     21 C         140.4570  141.0912  170.9346 C.ar    1  UNL1        0.1091
     22 N         139.4430  140.1025  170.4402 N.ar    1  UNL1       -0.2416
     23 C         139.2777  139.8707  168.9674 C.ar    1  UNL1        0.0989
     24 C         140.1263  140.6275  167.9892 C.ar    1  UNL1        0.0198
     25 C         141.1403  141.6162  168.4837 C.ar    1  UNL1        0.0134
     26 N         143.3336  143.8254  170.9451 N.1     1  UNL1       -0.1908
     27 C         142.3196  142.8367  170.4507 C.1     1  UNL1        0.1020
     28 C         142.2187  140.8914  163.0662 C.ar    1  UNL1        0.0327
     29 C         143.2908  140.8775  164.1153 C.ar    1  UNL1        0.0211
     30 C         144.3379  139.8036  164.1032 C.ar    1  UNL1        0.0986
     31 N         144.3130  138.7436  163.0422 N.ar    1  UNL1       -0.2399
     32 C         143.2410  138.7576  161.9931 C.ar    1  UNL1        0.1525
     33 C         142.1938  139.8315  162.0051 C.ar    1  UNL1        0.0235
     34 C         143.2161  137.6976  160.9320 C.3     1  UNL1        0.4348
     35 F         143.1912  136.6377  159.8710 F       1  UNL1       -0.1644
     36 F         141.8399  138.1358  160.5266 F       1  UNL1       -0.1644
     37 F         144.5921  137.2595  161.3375 F       1  UNL1       -0.1644
@<TRIPOS>BOND
     1    26    27    3
     2    27    20    1
     3    20    21   ar
     4    21    22   ar
     5    22    23   ar
     6    23    24   ar
     7    24    14    1
     8    14    15   ar
     9    15    16   ar
    10    16    17   ar
    11    17    18   ar
    12    18     1    1
    13     1    28    1
    14    28    29   ar
    15    29    30   ar
    16    30    31   ar
    17    31    32   ar
    18    32    34    1
    19    34    35    1
    20    34    36    1
    21    34    37    1
    22    32    33   ar
    23     1     2    1
    24     2     3    2
    25     3     4    1
    26     3     5    1
    27     5     6   ar
    28     6     7    1
    29     6     8   ar
    30     8     9   ar
    31     9    10   ar
    32    10    11   ar
    33    18    19   ar
    34    24    25   ar
    35    25    20   ar
    36    19    14   ar
    37    11     1    1
    38    33    28   ar
    39    11     5   ar
    40     4    12    1
    41     4    13    1
@<TRIPOS>MOLECULE
*****
 37 41 0 0 0
SMALL
GASTEIGER

@<TRIPOS>ATOM
      1 C         141.5851  140.0671  165.8911 C.3     1  UNL1        0.2309
      2 N         142.2084  140.8869  166.9817 N.2     1  UNL1       -0.0614
      3 C         141.2613  140.9081  168.1446 C.2     1  UNL1        0.3157
      4 N         141.4838  141.6123  169.4502 N.pl3   1  UNL1       -0.2464
      5 C         140.0526  140.1013  167.7729 C.ar    1  UNL1        0.1094
      6 C         138.7957  139.7728  168.5226 C.ar    1  UNL1        0.1470
      7 F         138.5956  140.2926  169.9154 F       1  UNL1       -0.2039
      8 C         137.7388  138.9246  167.8796 C.ar    1  UNL1        0.0299
      9 C         137.9389  138.4048  166.4868 C.ar    1  UNL1        0.0021
     10 C         139.1959  138.7333  165.7370 C.ar    1  UNL1        0.0008
     11 C         140.2527  139.5815  166.3801 C.ar    1  UNL1        0.0390
     12 H         142.3141  142.1194  169.6007 H       1  UNL1        0.2884
     13 H         140.7995  141.5675  170.1566 H       1  UNL1        0.2884
     14 C         140.2456  139.2886  162.2373 C.ar    1  UNL1        0.0014
     15 C         140.5034  137.8136  162.1492 C.ar    1  UNL1        0.0000
     16 C         141.1217  137.0897  163.3084 C.ar    1  UNL1       -0.0002
     17 C         141.4823  137.8408  164.5557 C.ar    1  UNL1        0.0004
     18 C         141.2245  139.3159  164.6438 C.ar    1  UNL1        0.0297
     19 C         140.6061  140.0398  163.4847 C.ar    1  UNL1        0.0004
     20 C         139.3196  142.1859  159.6882 C.ar    1  UNL1        0.0876
     21 C         138.3907  141.4607  158.7601 C.ar    1  UNL1        0.1091
     22 N         138.0801  140.0115  158.9911 N.ar    1  UNL1       -0.2416
     23 C         138.6984  139.2874  160.1502 C.ar    1  UNL1        0.0989
     24 C         139.6272  140.0126  161.0782 C.ar    1  UNL1        0.0198
     25 C         139.9379  141.4618  160.8472 C.ar    1  UNL1        0.0134
     26 N         139.9408  145.0843  159.2263 N.1     1  UNL1       -0.1908
     27 C         139.6302  143.6351  159.4572 C.1     1  UNL1        0.1020
     28 C         142.8421  140.3956  165.1414 C.ar    1  UNL1        0.0327
     29 C         143.9235  139.3655  165.0027 C.ar    1  UNL1        0.0211
     30 C         145.1805  139.6939  164.2530 C.ar    1  UNL1        0.0986
     31 N         145.3560  141.0525  163.6420 N.ar    1  UNL1       -0.2399
     32 C         144.2746  142.0827  163.7807 C.ar    1  UNL1        0.1525
     33 C         143.0176  141.7542  164.5304 C.ar    1  UNL1        0.0235
     34 C         144.4502  143.4413  163.1697 C.3     1  UNL1        0.4348
     35 F         144.6257  144.7999  162.5587 F       1  UNL1       -0.1644
     36 F         144.0550  144.0770  164.4697 F       1  UNL1       -0.1644
     37 F         144.8453  142.8057  161.8698 F       1  UNL1       -0.1644
@<TRIPOS>BOND
     1    26    27    3
     2    27    20    1
     3    20    21   ar
     4    21    22   ar
     5    22    23   ar
     6    23    24   ar
     7    24    14    1
     8    14    15   ar
     9    15    16   ar
    10    16    17   ar
    11    17    18   ar
    12    18     1    1
    13     1    28    1
    14    28    29   ar
    15    29    30   ar
    16    30    31   ar
    17    31    32   ar
    18    32    34    1
    19    34    35    1
    20    34    36    1
    21    34    37    1
    22    32    33   ar
    23     1     2    1
    24     2     3    2
    25     3     4    1
    26     3     5    1
    27     5     6   ar
    28     6     7    1
    29     6     8   ar
    30     8     9   ar
    31     9    10   ar
    32    10    11   ar
    33    18    19   ar
    34    24    25   ar
    35    25    20   ar
    36    19    14   ar
    37    11     1    1
    38    33    28   ar
    39    11     5   ar
    40     4    12    1
    41     4    13    1
@<TRIPOS>MOLECULE
*****
 37 41 0 0 0
SMALL
GASTEIGER

@<TRIPOS>ATOM
      1 C         141.6568  141.7437  161.8264 C.3     1  UNL1        0.2309
      2 N         140.7737  141.6325  160.6190 N.2     1  UNL1       -0.0614
      3 C         141.1063  140.3487  159.9182 C.2     1  UNL1        0.3157
      4 N         140.4631  139.8370  158.6634 N.pl3   1  UNL1       -0.2464
      5 C         142.1948  139.6664  160.6924 C.ar    1  UNL1        0.1094
      6 C         142.9202  138.3714  160.4759 C.ar    1  UNL1        0.1470
      7 F         142.5799  137.5093  159.2965 F       1  UNL1       -0.2039
      8 C         143.9858  137.9387  161.4388 C.ar    1  UNL1        0.0299
      9 C         144.3260  138.8008  162.6181 C.ar    1  UNL1        0.0021
     10 C         143.6007  140.0958  162.8347 C.ar    1  UNL1        0.0008
     11 C         142.5351  140.5285  161.8718 C.ar    1  UNL1        0.0390
     12 H         139.7529  140.3597  158.2258 H       1  UNL1        0.2884
     13 H         140.7513  138.9784  158.2774 H       1  UNL1        0.2884
     14 C         142.6793  141.9555  165.6552 C.ar    1  UNL1        0.0014
     15 C         143.8510  142.8894  165.5844 C.ar    1  UNL1        0.0000
     16 C         144.2914  143.4413  164.2610 C.ar    1  UNL1       -0.0002
     17 C         143.5600  143.0594  163.0083 C.ar    1  UNL1        0.0004
     18 C         142.3882  142.1255  163.0791 C.ar    1  UNL1        0.0297
     19 C         141.9478  141.5736  164.4025 C.ar    1  UNL1        0.0004
     20 C         140.9603  141.6889  169.2222 C.ar    1  UNL1        0.0876
     21 C         141.3580  140.2999  169.6254 C.ar    1  UNL1        0.1091
     22 N         142.1961  139.4628  168.7052 N.ar    1  UNL1       -0.2416
     23 C         142.6366  140.0147  167.3818 C.ar    1  UNL1        0.0989
     24 C         142.2389  141.4036  166.9786 C.ar    1  UNL1        0.0198
     25 C         141.4007  142.2408  167.8989 C.ar    1  UNL1        0.0134
     26 N         139.2841  143.3632  171.0626 N.1     1  UNL1       -0.1908
     27 C         140.1221  142.5260  170.1424 C.1     1  UNL1        0.1020
     28 C         140.9313  143.0387  162.0429 C.ar    1  UNL1        0.0327
     29 C         141.2157  144.2148  161.1564 C.ar    1  UNL1        0.0211
     30 C         140.4903  145.5098  161.3729 C.ar    1  UNL1        0.0986
     31 N         139.4806  145.6286  162.4758 N.ar    1  UNL1       -0.2399
     32 C         139.1963  144.4524  163.3622 C.ar    1  UNL1        0.1525
     33 C         139.9217  143.1575  163.1458 C.ar    1  UNL1        0.0235
     34 C         138.1866  144.5713  164.4651 C.3     1  UNL1        0.4348
     35 F         137.1769  144.6901  165.5680 F       1  UNL1       -0.1644
     36 F         137.0797  144.3640  163.4741 F       1  UNL1       -0.1644
     37 F         139.2934  144.7785  165.4560 F       1  UNL1       -0.1644
@<TRIPOS>BOND
     1    26    27    3
     2    27    20    1
     3    20    21   ar
     4    21    22   ar
     5    22    23   ar
     6    23    24   ar
     7    24    14    1
     8    14    15   ar
     9    15    16   ar
    10    16    17   ar
    11    17    18   ar
    12    18     1    1
    13     1    28    1
    14    28    29   ar
    15    29    30   ar
    16    30    31   ar
    17    31    32   ar
    18    32    34    1
    19    34    35    1
    20    34    36    1
    21    34    37    1
    22    32    33   ar
    23     1     2    1
    24     2     3    2
    25     3     4    1
    26     3     5    1
    27     5     6   ar
    28     6     7    1
    29     6     8   ar
    30     8     9   ar
    31     9    10   ar
    32    10    11   ar
    33    18    19   ar
    34    24    25   ar
    35    25    20   ar
    36    19    14   ar
    37    11     1    1
    38    33    28   ar
    39    11     5   ar
    40     4    12    1
    41     4    13    1
@<TRIPOS>MOLECULE
*****
 37 41 0 0 0
SMALL
GASTEIGER

@<TRIPOS>ATOM
      1 C         141.3482  140.6951  162.5099 C.3     1  UNL1        0.2309
      2 N         140.6828  141.3802  161.3532 N.2     1  UNL1       -0.0614
      3 C         139.3966  140.6632  161.0674 C.2     1  UNL1        0.3157
      4 N         138.4126  141.0130  159.9906 N.pl3   1  UNL1       -0.2464
      5 C         139.2671  139.5351  162.0475 C.ar    1  UNL1        0.1094
      6 C         138.2067  138.4924  162.2433 C.ar    1  UNL1        0.1470
      7 F         137.0005  138.4727  161.3518 F       1  UNL1       -0.2039
      8 C         138.3524  137.4694  163.3305 C.ar    1  UNL1        0.0299
      9 C         139.5586  137.4891  164.2220 C.ar    1  UNL1        0.0021
     10 C         140.6190  138.5318  164.0262 C.ar    1  UNL1        0.0008
     11 C         140.4732  139.5548  162.9389 C.ar    1  UNL1        0.0390
     12 H         138.5870  141.7760  159.3934 H       1  UNL1        0.2884
     13 H         137.5924  140.4796  159.8812 H       1  UNL1        0.2884
     14 C         142.7541  140.0546  166.1655 C.ar    1  UNL1        0.0014
     15 C         144.0095  139.2938  165.8571 C.ar    1  UNL1        0.0000
     16 C         144.3779  139.0001  164.4329 C.ar    1  UNL1       -0.0002
     17 C         143.4908  139.4672  163.3172 C.ar    1  UNL1        0.0004
     18 C         142.2353  140.2280  163.6256 C.ar    1  UNL1        0.0297
     19 C         141.8669  140.5217  165.0497 C.ar    1  UNL1        0.0004
     20 C         141.4060  141.9641  169.3726 C.ar    1  UNL1        0.0876
     21 C         141.6488  140.9359  170.4376 C.ar    1  UNL1        0.1091
     22 N         142.2601  139.6141  170.0785 N.ar    1  UNL1       -0.2416
     23 C         142.6285  139.3203  168.6544 C.ar    1  UNL1        0.0989
     24 C         142.3857  140.3483  167.5896 C.ar    1  UNL1        0.0198
     25 C         141.7744  141.6703  167.9486 C.ar    1  UNL1        0.0134
     26 N         140.1833  144.6078  170.0908 N.1     1  UNL1       -0.1908
     27 C         140.7947  143.2859  169.7317 C.1     1  UNL1        0.1020
     28 C         142.4086  141.7378  162.3140 C.ar    1  UNL1        0.0327
     29 C         143.1565  141.8123  161.0159 C.ar    1  UNL1        0.0211
     30 C         144.2169  142.8549  160.8200 C.ar    1  UNL1        0.0986
     31 N         144.5294  143.8231  161.9222 N.ar    1  UNL1       -0.2399
     32 C         143.7814  143.7487  163.2203 C.ar    1  UNL1        0.1525
     33 C         142.7210  142.7060  163.4162 C.ar    1  UNL1        0.0235
     34 C         144.0939  144.7170  164.3226 C.3     1  UNL1        0.4348
     35 F         144.4064  145.6852  165.4248 F       1  UNL1       -0.1644
     36 F         143.9553  145.8584  163.3592 F       1  UNL1       -0.1644
     37 F         144.2325  143.5756  165.2859 F       1  UNL1       -0.1644
@<TRIPOS>BOND
     1    26    27    3
     2    27    20    1
     3    20    21   ar
     4    21    22   ar
     5    22    23   ar
     6    23    24   ar
     7    24    14    1
     8    14    15   ar
     9    15    16   ar
    10    16    17   ar
    11    17    18   ar
    12    18     1    1
    13     1    28    1
    14    28    29   ar
    15    29    30   ar
    16    30    31   ar
    17    31    32   ar
    18    32    34    1
    19    34    35    1
    20    34    36    1
    21    34    37    1
    22    32    33   ar
    23     1     2    1
    24     2     3    2
    25     3     4    1
    26     3     5    1
    27     5     6   ar
    28     6     7    1
    29     6     8   ar
    30     8     9   ar
    31     9    10   ar
    32    10    11   ar
    33    18    19   ar
    34    24    25   ar
    35    25    20   ar
    36    19    14   ar
    37    11     1    1
    38    33    28   ar
    39    11     5   ar
    40     4    12    1
    41     4    13    1
@<TRIPOS>MOLECULE
*****
 37 41 0 0 0
SMALL
GASTEIGER

@<TRIPOS>ATOM
      1 C         141.1529  141.8640  162.9448 C.3     1  UNL1        0.2309
      2 N         142.1076  142.6684  162.1132 N.2     1  UNL1       -0.0614
      3 C         141.4561  143.9830  161.8010 C.2     1  UNL1        0.3157
      4 N         142.0565  145.0944  160.9921 N.pl3   1  UNL1       -0.2464
      5 C         140.0988  143.9910  162.4396 C.ar    1  UNL1        0.1094
      6 C         139.0094  145.0216  162.4686 C.ar    1  UNL1        0.1470
      7 F         139.1968  146.3313  161.7617 F       1  UNL1       -0.2039
      8 C         137.7326  144.7426  163.2047 C.ar    1  UNL1        0.0299
      9 C         137.5452  143.4330  163.9116 C.ar    1  UNL1        0.0021
     10 C         138.6346  142.4024  163.8825 C.ar    1  UNL1        0.0008
     11 C         139.9114  142.6814  163.1465 C.ar    1  UNL1        0.0390
     12 H         142.9592  144.9945  160.6120 H       1  UNL1        0.2884
     13 H         141.5479  145.9238  160.8413 H       1  UNL1        0.2884
     14 C         139.7441  139.9010  166.0932 C.ar    1  UNL1        0.0014
     15 C         138.9722  138.8043  165.4213 C.ar    1  UNL1        0.0000
     16 C         138.9272  138.7275  163.9239 C.ar    1  UNL1       -0.0002
     17 C         139.6541  139.7474  163.0984 C.ar    1  UNL1        0.0004
     18 C         140.4260  140.8441  163.7703 C.ar    1  UNL1        0.0297
     19 C         140.4710  140.9209  165.2677 C.ar    1  UNL1        0.0004
     20 C         138.5924  139.7988  169.8896 C.ar    1  UNL1        0.0876
     21 C         139.8791  140.1316  170.5852 C.ar    1  UNL1        0.1091
     22 N         141.1207  140.3875  169.7834 N.ar    1  UNL1       -0.2416
     23 C         141.0757  140.3107  168.2861 C.ar    1  UNL1        0.0989
     24 C         139.7892  139.9779  167.5906 C.ar    1  UNL1        0.0198
     25 C         138.5474  139.7219  168.3923 C.ar    1  UNL1        0.0134
     26 N         136.1091  139.2870  171.4932 N.1     1  UNL1       -0.1908
     27 C         137.3508  139.5429  170.6914 C.1     1  UNL1        0.1020
     28 C         142.2424  140.8334  162.9157 C.ar    1  UNL1        0.0327
     29 C         142.8820  140.4547  161.6128 C.ar    1  UNL1        0.0211
     30 C         143.9714  139.4241  161.5836 C.ar    1  UNL1        0.0986
     31 N         144.4214  138.7722  162.8574 N.ar    1  UNL1       -0.2399
     32 C         143.7818  139.1508  164.1603 C.ar    1  UNL1        0.1525
     33 C         142.6923  140.1814  164.1895 C.ar    1  UNL1        0.0235
     34 C         144.2318  138.4989  165.4341 C.3     1  UNL1        0.4348
     35 F         144.6818  137.8469  166.7079 F       1  UNL1       -0.1644
     36 F         142.8050  138.1925  165.7814 F       1  UNL1       -0.1644
     37 F         145.6585  138.8052  165.0869 F       1  UNL1       -0.1644
@<TRIPOS>BOND
     1    26    27    3
     2    27    20    1
     3    20    21   ar
     4    21    22   ar
     5    22    23   ar
     6    23    24   ar
     7    24    14    1
     8    14    15   ar
     9    15    16   ar
    10    16    17   ar
    11    17    18   ar
    12    18     1    1
    13     1    28    1
    14    28    29   ar
    15    29    30   ar
    16    30    31   ar
    17    31    32   ar
    18    32    34    1
    19    34    35    1
    20    34    36    1
    21    34    37    1
    22    32    33   ar
    23     1     2    1
    24     2     3    2
    25     3     4    1
    26     3     5    1
    27     5     6   ar
    28     6     7    1
    29     6     8   ar
    30     8     9   ar
    31     9    10   ar
    32    10    11   ar
    33    18    19   ar
    34    24    25   ar
    35    25    20   ar
    36    19    14   ar
    37    11     1    1
    38    33    28   ar
    39    11     5   ar
    40     4    12    1
    41     4    13    1
@<TRIPOS>MOLECULE
*****
 37 41 0 0 0
SMALL
GASTEIGER

@<TRIPOS>ATOM
      1 C         141.2303  143.6047  160.5251 C.3     1  UNL1        0.2309
      2 N         142.4523  144.0739  159.7925 N.2     1  UNL1       -0.0614
      3 C         142.1710  143.9911  158.3215 C.2     1  UNL1        0.3157
      4 N         143.1191  144.3633  157.2203 N.pl3   1  UNL1       -0.2464
      5 C         140.7753  143.4706  158.1449 C.ar    1  UNL1        0.1094
      6 C         139.9587  143.1834  156.9199 C.ar    1  UNL1        0.1470
      7 F         140.5401  143.4222  155.5580 F       1  UNL1       -0.2039
      8 C         138.5608  142.6573  157.0569 C.ar    1  UNL1        0.0299
      9 C         137.9794  142.4185  158.4189 C.ar    1  UNL1        0.0021
     10 C         138.7959  142.7057  159.6439 C.ar    1  UNL1        0.0008
     11 C         140.1939  143.2318  159.5069 C.ar    1  UNL1        0.0390
     12 H         144.0193  144.6974  157.4377 H       1  UNL1        0.2884
     13 H         142.8411  144.2735  156.2801 H       1  UNL1        0.2884
     14 C         139.1810  141.4269  163.1344 C.ar    1  UNL1        0.0014
     15 C         138.0767  142.3772  163.4913 C.ar    1  UNL1        0.0000
     16 C         138.0236  143.7367  162.8596 C.ar    1  UNL1       -0.0002
     17 C         139.0748  144.1458  161.8709 C.ar    1  UNL1        0.0004
     18 C         140.1791  143.1955  161.5138 C.ar    1  UNL1        0.0297
     19 C         140.2323  141.8361  162.1456 C.ar    1  UNL1        0.0004
     20 C         138.4427  138.4063  165.6001 C.ar    1  UNL1        0.0876
     21 C         139.3405  137.3486  165.0295 C.ar    1  UNL1        0.1091
     22 N         140.1851  137.6505  163.8273 N.ar    1  UNL1       -0.2416
     23 C         140.1320  139.0099  163.1955 C.ar    1  UNL1        0.0989
     24 C         139.2342  140.0674  163.7661 C.ar    1  UNL1        0.0198
     25 C         138.3895  139.7656  164.9684 C.ar    1  UNL1        0.0134
     26 N         136.7534  137.8026  168.0047 N.1     1  UNL1       -0.1908
     27 C         137.5980  138.1044  166.8024 C.1     1  UNL1        0.1020
     28 C         142.0470  143.8920  161.7502 C.ar    1  UNL1        0.0327
     29 C         141.7068  145.0656  162.6201 C.ar    1  UNL1        0.0211
     30 C         142.5234  145.3530  163.8450 C.ar    1  UNL1        0.0986
     31 N         143.6802  144.4667  164.2001 N.ar    1  UNL1       -0.2399
     32 C         144.0205  143.2930  163.3301 C.ar    1  UNL1        0.1525
     33 C         143.2039  143.0057  162.1052 C.ar    1  UNL1        0.0235
     34 C         145.1774  142.4067  163.6852 C.3     1  UNL1        0.4348
     35 F         146.3342  141.5204  164.0403 F       1  UNL1       -0.1644
     36 F         145.2608  141.9448  162.2605 F       1  UNL1       -0.1644
     37 F         145.0939  142.8686  165.1099 F       1  UNL1       -0.1644
@<TRIPOS>BOND
     1    26    27    3
     2    27    20    1
     3    20    21   ar
     4    21    22   ar
     5    22    23   ar
     6    23    24   ar
     7    24    14    1
     8    14    15   ar
     9    15    16   ar
    10    16    17   ar
    11    17    18   ar
    12    18     1    1
    13     1    28    1
    14    28    29   ar
    15    29    30   ar
    16    30    31   ar
    17    31    32   ar
    18    32    34    1
    19    34    35    1
    20    34    36    1
    21    34    37    1
    22    32    33   ar
    23     1     2    1
    24     2     3    2
    25     3     4    1
    26     3     5    1
    27     5     6   ar
    28     6     7    1
    29     6     8   ar
    30     8     9   ar
    31     9    10   ar
    32    10    11   ar
    33    18    19   ar
    34    24    25   ar
    35    25    20   ar
    36    19    14   ar
    37    11     1    1
    38    33    28   ar
    39    11     5   ar
    40     4    12    1
    41     4    13    1
