@<TRIPOS>MOLECULE
*****
 30 34 0 0 0
SMALL
GASTEIGER

@<TRIPOS>ATOM
      1 C         138.4939  138.2935  163.1735 C.ar    1  UNL1       -0.0206
      2 C         138.0799  139.6446  163.6766 C.ar    1  UNL1       -0.0011
      3 C         138.0586  139.9218  165.1506 C.ar    1  UNL1        0.0373
      4 C         138.4515  138.8480  166.1215 C.ar    1  UNL1        0.1477
      5 C         138.8655  137.4969  165.6183 C.ar    1  UNL1        0.0373
      6 C         138.8868  137.2197  164.1443 C.ar    1  UNL1       -0.0011
      7 C         138.5152  138.0163  161.6994 C.3     1  UNL1        0.0437
      8 C         139.5238  138.6974  160.8226 C.3     1  UNL1        0.0768
      9 C         141.7250  142.3241  162.3230 C.3     1  UNL1        0.0781
     10 C         140.4843  142.4886  161.4962 C.3     1  UNL1        0.0372
     11 C         139.7505  141.2797  160.9961 C.3     1  UNL1        0.0738
     12 N         140.2575  139.9063  161.3227 N.3     1  UNL1       -0.2723
     13 C         141.4982  139.7418  162.1495 C.3     1  UNL1        0.0738
     14 C         142.2320  140.9507  162.6496 C.3     1  UNL1        0.0372
     15 O         140.5497  144.5648  164.3838 O.2     1  UNL1       -0.2749
     16 C         141.9185  144.5630  163.7704 C.2     1  UNL1        0.2256
     17 C         142.9874  145.5908  163.9965 C.3     1  UNL1        0.0870
     18 C         144.1883  145.1961  163.1890 C.3     1  UNL1        0.0311
     19 C         143.8615  143.9243  162.4638 C.3     1  UNL1        0.0938
     20 N         142.4587  143.5330  162.8231 N.am    1  UNL1       -0.2811
     21 O         138.4302  139.1252  167.5955 O.3     1  UNL1       -0.4313
     22 C         139.5066  139.9656  168.2162 C.ar    1  UNL1        0.2642
     23 N         139.3891  140.7490  169.4900 N.ar    1  UNL1       -0.1859
     24 C         140.6993  141.4377  169.7331 C.ar    1  UNL1        0.1720
     25 N         141.1678  142.3443  170.8324 N.ar    1  UNL1       -0.2245
     26 C         142.5635  142.8933  170.8082 C.ar    1  UNL1        0.1006
     27 C         143.4907  142.5356  169.6846 C.ar    1  UNL1        0.0213
     28 C         143.0222  141.6289  168.5853 C.ar    1  UNL1        0.0113
     29 C         141.6265  141.0800  168.6096 C.ar    1  UNL1        0.0697
     30 S         140.8893  140.1702  167.6721 S.2     1  UNL1       -0.0267
@<TRIPOS>BOND
     1    15    16    2
     2    16    17    1
     3    17    18    1
     4    18    19    1
     5    19    20    1
     6    20     9    1
     7     9    10    1
     8    10    11    1
     9    11    12    1
    10    12     8    1
    11     8     7    1
    12     7     1    1
    13     1     2   ar
    14     2     3   ar
    15     3     4   ar
    16     4    21    1
    17    21    22    1
    18    22    23   ar
    19    23    24   ar
    20    24    25   ar
    21    25    26   ar
    22    26    27   ar
    23    27    28   ar
    24    28    29   ar
    25    29    30   ar
    26     4     5   ar
    27     5     6   ar
    28    12    13    1
    29    13    14    1
    30    20    16   am
    31    14     9    1
    32     6     1   ar
    33    30    22   ar
    34    29    24   ar
@<TRIPOS>MOLECULE
*****
 30 34 0 0 0
SMALL
GASTEIGER

@<TRIPOS>ATOM
      1 C         140.0140  137.6960  162.6103 C.ar    1  UNL1       -0.0206
      2 C         140.8018  138.1757  161.4274 C.ar    1  UNL1       -0.0011
      3 C         140.1112  138.9006  160.3104 C.ar    1  UNL1        0.0373
      4 C         138.6328  139.1458  160.3764 C.ar    1  UNL1        0.1477
      5 C         137.8450  138.6661  161.5594 C.ar    1  UNL1        0.0373
      6 C         138.5356  137.9412  162.6763 C.ar    1  UNL1       -0.0011
      7 C         140.7046  136.9711  163.7273 C.3     1  UNL1        0.0437
      8 C         141.8025  137.6467  164.4942 C.3     1  UNL1        0.0768
      9 C         140.7956  140.6436  167.6964 C.3     1  UNL1        0.0781
     10 C         142.2208  140.2306  167.4772 C.3     1  UNL1        0.0372
     11 C         142.5565  139.2316  166.4098 C.3     1  UNL1        0.0738
     12 N         141.4669  138.6456  165.5616 N.3     1  UNL1       -0.2723
     13 C         140.0416  139.0587  165.7809 C.3     1  UNL1        0.0738
     14 C         139.7060  140.0576  166.8483 C.3     1  UNL1        0.0372
     15 O         139.1340  140.0355  170.4385 O.2     1  UNL1       -0.2749
     16 C         139.6962  141.3630  170.0243 C.2     1  UNL1        0.2256
     17 C         139.5934  142.6441  170.7978 C.3     1  UNL1        0.0870
     18 C         140.2936  143.7155  170.0154 C.3     1  UNL1        0.0311
     19 C         140.8292  143.0964  168.7583 C.3     1  UNL1        0.0938
     20 N         140.4600  141.6425  168.7639 N.am    1  UNL1       -0.2811
     21 O         137.9422  139.8707  159.2595 O.3     1  UNL1       -0.4313
     22 C         138.4553  141.2031  158.7997 C.ar    1  UNL1        0.2642
     23 N         138.9531  142.3087  159.6828 N.ar    1  UNL1       -0.1859
     24 C         139.3661  143.4528  158.8051 C.ar    1  UNL1        0.1720
     25 N         139.9318  144.8059  159.1198 N.ar    1  UNL1       -0.2245
     26 C         140.2548  145.7606  158.0088 C.ar    1  UNL1        0.1006
     27 C         140.0122  145.3621  156.5832 C.ar    1  UNL1        0.0213
     28 C         139.4466  144.0090  156.2685 C.ar    1  UNL1        0.0113
     29 C         139.1236  143.0543  157.3795 C.ar    1  UNL1        0.0697
     30 S         138.5606  141.6640  157.3762 S.2     1  UNL1       -0.0267
@<TRIPOS>BOND
     1    15    16    2
     2    16    17    1
     3    17    18    1
     4    18    19    1
     5    19    20    1
     6    20     9    1
     7     9    10    1
     8    10    11    1
     9    11    12    1
    10    12     8    1
    11     8     7    1
    12     7     1    1
    13     1     2   ar
    14     2     3   ar
    15     3     4   ar
    16     4    21    1
    17    21    22    1
    18    22    23   ar
    19    23    24   ar
    20    24    25   ar
    21    25    26   ar
    22    26    27   ar
    23    27    28   ar
    24    28    29   ar
    25    29    30   ar
    26     4     5   ar
    27     5     6   ar
    28    12    13    1
    29    13    14    1
    30    20    16   am
    31    14     9    1
    32     6     1   ar
    33    30    22   ar
    34    29    24   ar
@<TRIPOS>MOLECULE
*****
 30 34 0 0 0
SMALL
GASTEIGER

@<TRIPOS>ATOM
      1 C         140.4550  139.7248  167.2044 C.ar    1  UNL1       -0.0206
      2 C         141.3694  139.1678  166.1539 C.ar    1  UNL1       -0.0011
      3 C         140.8016  138.4100  164.9905 C.ar    1  UNL1        0.0373
      4 C         139.3194  138.2093  164.8776 C.ar    1  UNL1        0.1477
      5 C         138.4050  138.7663  165.9282 C.ar    1  UNL1        0.0373
      6 C         138.9728  139.5240  167.0915 C.ar    1  UNL1       -0.0011
      7 C         141.0228  140.4825  168.3678 C.3     1  UNL1        0.0437
      8 C         141.4557  141.9082  168.1950 C.3     1  UNL1        0.0768
      9 C         140.9704  143.9394  164.2089 C.3     1  UNL1        0.0781
     10 C         139.8048  143.8422  165.1479 C.3     1  UNL1        0.0372
     11 C         139.9665  143.1652  166.4767 C.3     1  UNL1        0.0738
     12 N         141.2939  142.5853  166.8663 N.3     1  UNL1       -0.2723
     13 C         142.4596  142.6824  165.9272 C.3     1  UNL1        0.0738
     14 C         142.2978  143.3595  164.5985 C.3     1  UNL1        0.0372
     15 O         142.7841  143.4032  161.5495 O.2     1  UNL1       -0.2749
     16 C         141.6424  144.3700  161.6577 C.2     1  UNL1        0.2256
     17 C         141.1338  145.2600  160.5626 C.3     1  UNL1        0.0870
     18 C         139.9858  146.0565  161.1082 C.3     1  UNL1        0.0311
     19 C         139.7848  145.6587  162.5406 C.3     1  UNL1        0.0938
     20 N         140.8087  144.6164  162.8802 N.am    1  UNL1       -0.2811
     21 O         138.7515  137.4516  163.7143 O.3     1  UNL1       -0.4313
     22 C         138.8226  138.0334  162.3336 C.ar    1  UNL1        0.2642
     23 N         139.8416  137.6959  161.2859 N.ar    1  UNL1       -0.1859
     24 C         139.5360  138.5088  160.0629 C.ar    1  UNL1        0.1720
     25 N         140.2015  138.5927  158.7213 N.ar    1  UNL1       -0.2245
     26 C         139.6590  139.5166  157.6715 C.ar    1  UNL1        0.1006
     27 C         138.4510  140.3566  157.9633 C.ar    1  UNL1        0.0213
     28 C         137.7855  140.2727  159.3050 C.ar    1  UNL1        0.0113
     29 C         138.3280  139.3488  160.3548 C.ar    1  UNL1        0.0697
     30 S         137.8871  139.0550  161.7581 S.2     1  UNL1       -0.0267
@<TRIPOS>BOND
     1    15    16    2
     2    16    17    1
     3    17    18    1
     4    18    19    1
     5    19    20    1
     6    20     9    1
     7     9    10    1
     8    10    11    1
     9    11    12    1
    10    12     8    1
    11     8     7    1
    12     7     1    1
    13     1     2   ar
    14     2     3   ar
    15     3     4   ar
    16     4    21    1
    17    21    22    1
    18    22    23   ar
    19    23    24   ar
    20    24    25   ar
    21    25    26   ar
    22    26    27   ar
    23    27    28   ar
    24    28    29   ar
    25    29    30   ar
    26     4     5   ar
    27     5     6   ar
    28    12    13    1
    29    13    14    1
    30    20    16   am
    31    14     9    1
    32     6     1   ar
    33    30    22   ar
    34    29    24   ar
@<TRIPOS>MOLECULE
*****
 30 34 0 0 0
SMALL
GASTEIGER

@<TRIPOS>ATOM
      1 C         139.4100  138.5292  162.1546 C.ar    1  UNL1       -0.0206
      2 C         140.3329  138.6264  160.9762 C.ar    1  UNL1       -0.0011
      3 C         140.1667  139.7382  159.9830 C.ar    1  UNL1        0.0373
      4 C         139.0776  140.7528  160.1683 C.ar    1  UNL1        0.1477
      5 C         138.1546  140.6556  161.3468 C.ar    1  UNL1        0.0373
      6 C         138.3208  139.5438  162.3399 C.ar    1  UNL1       -0.0011
      7 C         139.5761  137.4174  163.1477 C.3     1  UNL1        0.0437
      8 C         140.6461  137.5015  164.1957 C.3     1  UNL1        0.0768
      9 C         140.3258  140.5405  167.4990 C.3     1  UNL1        0.0781
     10 C         141.6654  140.2121  166.9093 C.3     1  UNL1        0.0372
     11 C         141.7721  139.1991  165.8082 C.3     1  UNL1        0.0738
     12 N         140.5393  138.5145  165.2968 N.3     1  UNL1       -0.2723
     13 C         139.1998  138.8429  165.8865 C.3     1  UNL1        0.0738
     14 C         139.0930  139.8559  166.9876 C.3     1  UNL1        0.0372
     15 O         139.1670  139.9959  170.5006 O.2     1  UNL1       -0.2749
     16 C         139.6864  141.3032  169.9799 C.2     1  UNL1        0.2256
     17 C         139.7644  142.5896  170.7473 C.3     1  UNL1        0.0870
     18 C         140.3453  143.6350  169.8420 C.3     1  UNL1        0.0311
     19 C         140.6264  142.9946  168.5149 C.3     1  UNL1        0.0938
     20 N         140.2191  141.5535  168.6001 N.am    1  UNL1       -0.2811
     21 O         138.9114  141.8646  159.1752 O.3     1  UNL1       -0.4313
     22 C         138.0040  141.6859  157.9942 C.ar    1  UNL1        0.2642
     23 N         137.1657  140.4770  157.7013 N.ar    1  UNL1       -0.1859
     24 C         136.4192  140.7287  156.4249 C.ar    1  UNL1        0.1720
     25 N         135.4449  139.8917  155.6502 N.ar    1  UNL1       -0.2245
     26 C         134.8475  140.4192  154.3794 C.ar    1  UNL1        0.1006
     27 C         135.2245  141.7837  153.8833 C.ar    1  UNL1        0.0213
     28 C         136.1988  142.6207  154.6580 C.ar    1  UNL1        0.0113
     29 C         136.7961  142.0932  155.9288 C.ar    1  UNL1        0.0697
     30 S         137.7756  142.6847  156.8987 S.2     1  UNL1       -0.0267
@<TRIPOS>BOND
     1    15    16    2
     2    16    17    1
     3    17    18    1
     4    18    19    1
     5    19    20    1
     6    20     9    1
     7     9    10    1
     8    10    11    1
     9    11    12    1
    10    12     8    1
    11     8     7    1
    12     7     1    1
    13     1     2   ar
    14     2     3   ar
    15     3     4   ar
    16     4    21    1
    17    21    22    1
    18    22    23   ar
    19    23    24   ar
    20    24    25   ar
    21    25    26   ar
    22    26    27   ar
    23    27    28   ar
    24    28    29   ar
    25    29    30   ar
    26     4     5   ar
    27     5     6   ar
    28    12    13    1
    29    13    14    1
    30    20    16   am
    31    14     9    1
    32     6     1   ar
    33    30    22   ar
    34    29    24   ar
@<TRIPOS>MOLECULE
*****
 30 34 0 0 0
SMALL
GASTEIGER

@<TRIPOS>ATOM
      1 C         138.4924  138.7418  163.0332 C.ar    1  UNL1       -0.0206
      2 C         138.8766  137.5775  163.8974 C.ar    1  UNL1       -0.0011
      3 C         138.9095  137.7295  165.3893 C.ar    1  UNL1        0.0373
      4 C         138.5583  139.0458  166.0170 C.ar    1  UNL1        0.1477
      5 C         138.1741  140.2101  165.1527 C.ar    1  UNL1        0.0373
      6 C         138.1412  140.0581  163.6608 C.ar    1  UNL1       -0.0011
      7 C         138.4595  138.5897  161.5412 C.3     1  UNL1        0.0437
      8 C         137.7097  139.5819  160.7026 C.3     1  UNL1        0.0768
      9 C         139.9255  142.9021  158.6251 C.3     1  UNL1        0.0781
     10 C         139.1828  143.1782  159.8987 C.3     1  UNL1        0.0372
     11 C         138.4441  142.0715  160.5912 C.3     1  UNL1        0.0738
     12 N         138.4483  140.6886  160.0101 N.3     1  UNL1       -0.2723
     13 C         139.1911  140.4125  158.7365 C.3     1  UNL1        0.0738
     14 C         139.9297  141.5193  158.0440 C.3     1  UNL1        0.0372
     15 O         142.0150  144.9824  160.0237 O.2     1  UNL1       -0.2749
     16 C         141.6246  144.9651  158.5755 C.2     1  UNL1        0.2256
     17 C         142.1261  145.9010  157.5160 C.3     1  UNL1        0.0870
     18 C         141.4755  145.5232  156.2182 C.3     1  UNL1        0.0311
     19 C         140.5720  144.3538  156.4758 C.3     1  UNL1        0.0938
     20 N         140.6641  144.0089  157.9327 N.am    1  UNL1       -0.2811
     21 O         138.5912  139.1979  167.5089 O.3     1  UNL1       -0.4313
     22 C         139.6554  140.0352  168.1541 C.ar    1  UNL1        0.2642
     23 N         139.5147  140.8095  169.4311 N.ar    1  UNL1       -0.1859
     24 C         140.8195  141.4981  169.7019 C.ar    1  UNL1        0.1720
     25 N         141.2675  142.3976  170.8155 N.ar    1  UNL1       -0.2245
     26 C         142.6627  142.9484  170.8195 C.ar    1  UNL1        0.1006
     27 C         143.6098  142.5997  169.7099 C.ar    1  UNL1        0.0213
     28 C         143.1618  141.7003  168.5962 C.ar    1  UNL1        0.0113
     29 C         141.7666  141.1495  168.5923 C.ar    1  UNL1        0.0697
     30 S         141.0472  140.2454  167.6357 S.2     1  UNL1       -0.0267
@<TRIPOS>BOND
     1    15    16    2
     2    16    17    1
     3    17    18    1
     4    18    19    1
     5    19    20    1
     6    20     9    1
     7     9    10    1
     8    10    11    1
     9    11    12    1
    10    12     8    1
    11     8     7    1
    12     7     1    1
    13     1     2   ar
    14     2     3   ar
    15     3     4   ar
    16     4    21    1
    17    21    22    1
    18    22    23   ar
    19    23    24   ar
    20    24    25   ar
    21    25    26   ar
    22    26    27   ar
    23    27    28   ar
    24    28    29   ar
    25    29    30   ar
    26     4     5   ar
    27     5     6   ar
    28    12    13    1
    29    13    14    1
    30    20    16   am
    31    14     9    1
    32     6     1   ar
    33    30    22   ar
    34    29    24   ar
@<TRIPOS>MOLECULE
*****
 30 34 0 0 0
SMALL
GASTEIGER

@<TRIPOS>ATOM
      1 C         138.5500  140.9142  165.1591 C.ar    1  UNL1       -0.0206
      2 C         139.7383  141.6946  165.6375 C.ar    1  UNL1       -0.0011
      3 C         140.0676  143.0179  165.0126 C.ar    1  UNL1        0.0373
      4 C         139.2085  143.5608  163.9092 C.ar    1  UNL1        0.1477
      5 C         138.0202  142.7803  163.4309 C.ar    1  UNL1        0.0373
      6 C         137.6910  141.4571  164.0558 C.ar    1  UNL1       -0.0011
      7 C         138.2208  139.5909  165.7840 C.3     1  UNL1        0.0437
      8 C         138.7833  138.3270  165.2043 C.3     1  UNL1        0.0768
      9 C         140.5395  138.3389  161.0611 C.3     1  UNL1        0.0781
     10 C         139.0753  138.0766  161.2543 C.3     1  UNL1        0.0372
     11 C         138.4898  138.0727  162.6354 C.3     1  UNL1        0.0738
     12 N         139.3686  138.3309  163.8232 N.3     1  UNL1       -0.2723
     13 C         140.8329  138.5932  163.6300 C.3     1  UNL1        0.0738
     14 C         141.4183  138.5972  162.2490 C.3     1  UNL1        0.0372
     15 O         138.9707  139.1437  158.3152 O.2     1  UNL1       -0.2749
     16 C         140.4037  138.7128  158.4178 C.2     1  UNL1        0.2256
     17 C         141.3673  138.5762  157.2764 C.3     1  UNL1        0.0870
     18 C         142.6840  138.1217  157.8332 C.3     1  UNL1        0.0311
     19 C         142.5341  137.9775  159.3188 C.3     1  UNL1        0.0938
     20 N         141.1248  138.3428  159.6801 N.am    1  UNL1       -0.2811
     21 O         139.5377  144.8840  163.2843 O.3     1  UNL1       -0.4313
     22 C         140.0626  144.9406  161.8803 C.ar    1  UNL1        0.2642
     23 N         139.5230  145.7939  160.7710 N.ar    1  UNL1       -0.1859
     24 C         140.3461  145.5344  159.5441 C.ar    1  UNL1        0.1720
     25 N         140.2765  146.0902  158.1527 N.ar    1  UNL1       -0.2245
     26 C         141.2552  145.6323  157.1123 C.ar    1  UNL1        0.1006
     27 C         142.3036  144.6186  157.4634 C.ar    1  UNL1        0.0213
     28 C         142.3733  144.0628  158.8549 C.ar    1  UNL1        0.0113
     29 C         141.3945  144.5207  159.8952 C.ar    1  UNL1        0.0697
     30 S         141.2193  144.1537  161.3390 S.2     1  UNL1       -0.0267
@<TRIPOS>BOND
     1    15    16    2
     2    16    17    1
     3    17    18    1
     4    18    19    1
     5    19    20    1
     6    20     9    1
     7     9    10    1
     8    10    11    1
     9    11    12    1
    10    12     8    1
    11     8     7    1
    12     7     1    1
    13     1     2   ar
    14     2     3   ar
    15     3     4   ar
    16     4    21    1
    17    21    22    1
    18    22    23   ar
    19    23    24   ar
    20    24    25   ar
    21    25    26   ar
    22    26    27   ar
    23    27    28   ar
    24    28    29   ar
    25    29    30   ar
    26     4     5   ar
    27     5     6   ar
    28    12    13    1
    29    13    14    1
    30    20    16   am
    31    14     9    1
    32     6     1   ar
    33    30    22   ar
    34    29    24   ar
@<TRIPOS>MOLECULE
*****
 30 34 0 0 0
SMALL
GASTEIGER

@<TRIPOS>ATOM
      1 C         139.9344  138.2667  161.4191 C.ar    1  UNL1       -0.0206
      2 C         139.5625  138.5650  159.9969 C.ar    1  UNL1       -0.0011
      3 C         140.5955  138.4619  158.9141 C.ar    1  UNL1        0.0373
      4 C         142.0004  138.0604  159.2536 C.ar    1  UNL1        0.1477
      5 C         142.3722  137.7620  160.6759 C.ar    1  UNL1        0.0373
      6 C         141.3392  137.8651  161.7586 C.ar    1  UNL1       -0.0011
      7 C         138.9014  138.3698  162.5019 C.3     1  UNL1        0.0437
      8 C         139.1857  137.8126  163.8652 C.3     1  UNL1        0.0768
      9 C         139.8014  140.5939  167.3488 C.3     1  UNL1        0.0781
     10 C         138.6833  139.5944  167.3756 C.3     1  UNL1        0.0372
     11 C         138.4780  138.6673  166.2143 C.3     1  UNL1        0.0738
     12 N         139.3909  138.7397  165.0264 N.3     1  UNL1       -0.2723
     13 C         140.5091  139.7393  164.9996 C.3     1  UNL1        0.0738
     14 C         140.7143  140.6663  166.1608 C.3     1  UNL1        0.0372
     15 O         139.0599  139.9608  170.4630 O.2     1  UNL1       -0.2749
     16 C         139.6658  141.2300  169.9415 C.2     1  UNL1        0.2256
     17 C         140.0372  142.4310  170.7598 C.3     1  UNL1        0.0870
     18 C         140.6076  143.4643  169.8341 C.3     1  UNL1        0.0311
     19 C         140.5887  142.9019  168.4436 C.3     1  UNL1        0.0938
     20 N         140.0066  141.5210  168.5099 N.am    1  UNL1       -0.2811
     21 O         143.0333  137.9572  158.1709 O.3     1  UNL1       -0.4313
     22 C         142.8450  136.9843  157.0448 C.ar    1  UNL1        0.2642
     23 N         143.0656  135.5023  157.1139 N.ar    1  UNL1       -0.1859
     24 C         142.7600  134.9246  155.7637 C.ar    1  UNL1        0.1720
     25 N         142.8016  133.5196  155.2403 N.ar    1  UNL1       -0.2245
     26 C         142.4338  133.2396  153.8134 C.ar    1  UNL1        0.1006
     27 C         142.0242  134.3647  152.9098 C.ar    1  UNL1        0.0213
     28 C         141.9826  135.7698  153.4332 C.ar    1  UNL1        0.0113
     29 C         142.3504  136.0498  154.8602 C.ar    1  UNL1        0.0697
     30 S         142.4030  137.3227  155.6519 S.2     1  UNL1       -0.0267
@<TRIPOS>BOND
     1    15    16    2
     2    16    17    1
     3    17    18    1
     4    18    19    1
     5    19    20    1
     6    20     9    1
     7     9    10    1
     8    10    11    1
     9    11    12    1
    10    12     8    1
    11     8     7    1
    12     7     1    1
    13     1     2   ar
    14     2     3   ar
    15     3     4   ar
    16     4    21    1
    17    21    22    1
    18    22    23   ar
    19    23    24   ar
    20    24    25   ar
    21    25    26   ar
    22    26    27   ar
    23    27    28   ar
    24    28    29   ar
    25    29    30   ar
    26     4     5   ar
    27     5     6   ar
    28    12    13    1
    29    13    14    1
    30    20    16   am
    31    14     9    1
    32     6     1   ar
    33    30    22   ar
    34    29    24   ar
@<TRIPOS>MOLECULE
*****
 30 34 0 0 0
SMALL
GASTEIGER

@<TRIPOS>ATOM
      1 C         140.1694  142.6620  156.8420 C.ar    1  UNL1       -0.0206
      2 C         140.4776  141.1971  156.9366 C.ar    1  UNL1       -0.0011
      3 C         139.5853  140.2930  157.7345 C.ar    1  UNL1        0.0373
      4 C         138.3849  140.8539  158.4376 C.ar    1  UNL1        0.1477
      5 C         138.0768  142.3189  158.3429 C.ar    1  UNL1        0.0373
      6 C         138.9690  143.2229  157.5451 C.ar    1  UNL1       -0.0011
      7 C         141.0617  143.5661  156.0441 C.3     1  UNL1        0.0437
      8 C         142.2250  144.2450  156.7043 C.3     1  UNL1        0.0768
      9 C         143.8512  142.6540  160.5868 C.3     1  UNL1        0.0781
     10 C         142.6374  143.5352  160.5871 C.3     1  UNL1        0.0372
     11 C         142.0953  144.0656  159.2929 C.3     1  UNL1        0.0738
     12 N         142.7670  143.7147  157.9985 N.3     1  UNL1       -0.2723
     13 C         143.9809  142.8334  157.9982 C.3     1  UNL1        0.0738
     14 C         144.5230  142.3031  159.2924 C.3     1  UNL1        0.0372
     15 O         144.3035  139.5092  161.3318 O.2     1  UNL1       -0.2749
     16 C         144.6012  140.6781  162.2235 C.2     1  UNL1        0.2256
     17 C         145.1591  140.6068  163.6140 C.3     1  UNL1        0.0870
     18 C         145.2959  142.0082  164.1311 C.3     1  UNL1        0.0311
     19 C         144.8226  142.9457  163.0599 C.3     1  UNL1        0.0938
     20 N         144.3933  142.1237  161.8810 N.am    1  UNL1       -0.2811
     21 O         137.4926  139.9499  159.2354 O.3     1  UNL1       -0.4313
     22 C         137.7561  139.7346  160.6963 C.ar    1  UNL1        0.2642
     23 N         137.5130  140.7296  161.7921 N.ar    1  UNL1       -0.1859
     24 C         137.9157  140.0964  163.0910 C.ar    1  UNL1        0.1720
     25 N         137.8979  140.6031  164.5026 N.ar    1  UNL1       -0.2245
     26 C         138.3721  139.7235  165.6212 C.ar    1  UNL1        0.1006
     27 C         138.8642  138.3371  165.3281 C.ar    1  UNL1        0.0213
     28 C         138.8820  137.8304  163.9165 C.ar    1  UNL1        0.0113
     29 C         138.4077  138.7101  162.7979 C.ar    1  UNL1        0.0697
     30 S         138.3091  138.4864  161.3179 S.2     1  UNL1       -0.0267
@<TRIPOS>BOND
     1    15    16    2
     2    16    17    1
     3    17    18    1
     4    18    19    1
     5    19    20    1
     6    20     9    1
     7     9    10    1
     8    10    11    1
     9    11    12    1
    10    12     8    1
    11     8     7    1
    12     7     1    1
    13     1     2   ar
    14     2     3   ar
    15     3     4   ar
    16     4    21    1
    17    21    22    1
    18    22    23   ar
    19    23    24   ar
    20    24    25   ar
    21    25    26   ar
    22    26    27   ar
    23    27    28   ar
    24    28    29   ar
    25    29    30   ar
    26     4     5   ar
    27     5     6   ar
    28    12    13    1
    29    13    14    1
    30    20    16   am
    31    14     9    1
    32     6     1   ar
    33    30    22   ar
    34    29    24   ar
@<TRIPOS>MOLECULE
*****
 30 34 0 0 0
SMALL
GASTEIGER

@<TRIPOS>ATOM
      1 C         143.2510  138.3373  162.5350 C.ar    1  UNL1       -0.0206
      2 C         144.4020  139.0551  163.1753 C.ar    1  UNL1       -0.0011
      3 C         144.5332  139.0792  164.6694 C.ar    1  UNL1        0.0373
      4 C         143.5134  138.3855  165.5232 C.ar    1  UNL1        0.1477
      5 C         142.3624  137.6677  164.8827 C.ar    1  UNL1        0.0373
      6 C         142.2312  137.6436  163.3887 C.ar    1  UNL1       -0.0011
      7 C         143.1199  138.3132  161.0409 C.3     1  UNL1        0.0437
      8 C         142.2890  139.3496  160.3441 C.3     1  UNL1        0.0768
      9 C         139.8533  142.2703  162.7496 C.3     1  UNL1        0.0781
     10 C         139.2929  140.9184  162.4207 C.3     1  UNL1        0.0372
     11 C         140.1048  139.9448  161.6189 C.3     1  UNL1        0.0738
     12 N         141.4771  140.3231  161.1459 N.3     1  UNL1       -0.2723
     13 C         142.0375  141.6751  161.4749 C.3     1  UNL1        0.0738
     14 C         141.2256  142.6487  162.2767 C.3     1  UNL1        0.0372
     15 O         140.8368  143.8267  165.4440 O.2     1  UNL1       -0.2749
     16 C         139.4934  143.9593  164.7900 C.2     1  UNL1        0.2256
     17 C         138.3663  144.8306  165.2595 C.3     1  UNL1        0.0870
     18 C         137.2176  144.6537  164.3112 C.3     1  UNL1        0.0311
     19 C         137.6348  143.6731  163.2555 C.3     1  UNL1        0.0938
     20 N         139.0414  143.2439  163.5514 N.am    1  UNL1       -0.2811
     21 O         143.6445  138.4096  167.0172 O.3     1  UNL1       -0.4313
     22 C         142.8820  139.4209  167.8208 C.ar    1  UNL1        0.2642
     23 N         142.7474  139.4401  169.3146 N.ar    1  UNL1       -0.1859
     24 C         141.9024  140.6217  169.6888 C.ar    1  UNL1        0.1720
     25 N         141.4358  141.1419  171.0160 N.ar    1  UNL1       -0.2245
     26 C         140.5817  142.3733  171.0806 C.ar    1  UNL1        0.1006
     27 C         140.1940  143.0843  169.8180 C.ar    1  UNL1        0.0213
     28 C         140.6606  142.5640  168.4908 C.ar    1  UNL1        0.0113
     29 C         141.5147  141.3327  168.4262 C.ar    1  UNL1        0.0697
     30 S         142.1202  140.5906  167.2717 S.2     1  UNL1       -0.0267
@<TRIPOS>BOND
     1    15    16    2
     2    16    17    1
     3    17    18    1
     4    18    19    1
     5    19    20    1
     6    20     9    1
     7     9    10    1
     8    10    11    1
     9    11    12    1
    10    12     8    1
    11     8     7    1
    12     7     1    1
    13     1     2   ar
    14     2     3   ar
    15     3     4   ar
    16     4    21    1
    17    21    22    1
    18    22    23   ar
    19    23    24   ar
    20    24    25   ar
    21    25    26   ar
    22    26    27   ar
    23    27    28   ar
    24    28    29   ar
    25    29    30   ar
    26     4     5   ar
    27     5     6   ar
    28    12    13    1
    29    13    14    1
    30    20    16   am
    31    14     9    1
    32     6     1   ar
    33    30    22   ar
    34    29    24   ar
