@<TRIPOS>MOLECULE
*****
 24 26 0 0 0
SMALL
GASTEIGER

@<TRIPOS>ATOM
      1 C         138.4101  140.2660  162.2847 C.2     1  UNL1       -0.0205
      2 C         138.8326  140.2454  160.8455 C.2     1  UNL1        0.0514
      3 C         138.2703  141.1011  159.7492 C.3     1  UNL1        0.0514
      4 N         139.9159  139.2189  160.6951 N.2     1  UNL1       -0.2582
      5 C         140.1631  138.6051  162.0412 C.2     1  UNL1        0.0452
      6 C         139.2325  139.2522  163.0236 C.3     1  UNL1        0.0946
      7 C         139.2541  138.8347  164.4642 C.2     1  UNL1        0.0842
      8 N         138.3234  139.4819  165.4466 N.2     1  UNL1       -0.0801
      9 C         140.2063  137.7702  164.9224 C.3     1  UNL1        0.0457
     10 C         141.1369  137.1231  163.9399 C.3     1  UNL1        0.0120
     11 C         141.1153  137.5405  162.4994 C.3     1  UNL1        0.0424
     12 C         137.7055  142.5183  163.3712 C.3     1  UNL1        0.0047
     13 C         137.3513  141.1459  162.8803 C.3     1  UNL1        0.0239
     14 O         138.3450  139.0644  166.8872 O.3     1  UNL1       -0.2989
     15 C         139.1710  139.8303  167.8777 C.2     1  UNL1        0.4303
     16 O         138.8638  139.7356  169.3429 O.2     1  UNL1       -0.2237
     17 N         140.3042  140.6909  167.4031 N.am    1  UNL1       -0.2482
     18 H         140.5058  140.7531  166.4415 H       1  UNL1        0.1583
     19 C         141.1302  141.4568  168.3937 C.ar    1  UNL1        0.0532
     20 C         140.5861  142.7090  169.0149 C.ar    1  UNL1        0.0148
     21 C         141.4121  143.4749  170.0054 C.ar    1  UNL1        0.0013
     22 C         142.7821  142.9885  170.3748 C.ar    1  UNL1        0.0001
     23 C         143.3262  141.7363  169.7536 C.ar    1  UNL1        0.0013
     24 C         142.5002  140.9705  168.7631 C.ar    1  UNL1        0.0148
@<TRIPOS>BOND
     1    12    13    1
     2    13     1    1
     3     1     2    2
     4     2     3    1
     5     2     4    1
     6     4     5    2
     7     5     6    1
     8     6     7    1
     9     7     8    2
    10     8    14    1
    11    14    15    1
    12    15    16    2
    13    15    17   am
    14    17    19    1
    15    19    20   ar
    16    20    21   ar
    17    21    22   ar
    18    22    23   ar
    19    23    24   ar
    20     7     9    1
    21     9    10    1
    22    10    11    1
    23     6     1    1
    24    24    19   ar
    25    11     5    1
    26    17    18    1
@<TRIPOS>MOLECULE
*****
 24 26 0 0 0
SMALL
GASTEIGER

@<TRIPOS>ATOM
      1 C         141.8837  138.4880  162.0880 C.2     1  UNL1       -0.0205
      2 C         141.8128  138.9061  160.6492 C.2     1  UNL1        0.0514
      3 C         140.8388  138.3947  159.6293 C.3     1  UNL1        0.0514
      4 N         142.8869  139.9252  160.4091 N.2     1  UNL1       -0.2582
      5 C         143.6216  140.1371  161.6996 C.2     1  UNL1        0.0452
      6 C         143.0016  139.2489  162.7371 C.3     1  UNL1        0.0946
      7 C         143.5351  139.2476  164.1391 C.2     1  UNL1        0.0842
      8 N         142.9150  138.3593  165.1767 N.2     1  UNL1       -0.0801
      9 C         144.6886  140.1345  164.5034 C.3     1  UNL1        0.0457
     10 C         145.3086  141.0227  163.4658 C.3     1  UNL1        0.0120
     11 C         144.7751  141.0240  162.0639 C.3     1  UNL1        0.0424
     12 C         139.5895  137.8603  163.1333 C.3     1  UNL1        0.0047
     13 C         140.9930  137.4853  162.7597 C.3     1  UNL1        0.0239
     14 O         143.4485  138.3580  166.5786 O.3     1  UNL1       -0.2989
     15 C         142.7638  139.1640  167.6424 C.2     1  UNL1        0.4303
     16 O         143.0780  138.9182  169.0884 O.2     1  UNL1       -0.2237
     17 N         141.7650  140.2157  167.2602 N.am    1  UNL1       -0.2482
     18 H         141.5587  140.3771  166.3111 H       1  UNL1        0.1583
     19 C         141.0803  141.0217  168.3240 C.ar    1  UNL1        0.0532
     20 C         139.9192  140.4402  169.0748 C.ar    1  UNL1        0.0148
     21 C         139.2346  141.2462  170.1386 C.ar    1  UNL1        0.0013
     22 C         139.7110  142.6337  170.4516 C.ar    1  UNL1        0.0001
     23 C         140.8721  143.2152  169.7007 C.ar    1  UNL1        0.0013
     24 C         141.5567  142.4092  168.6370 C.ar    1  UNL1        0.0148
@<TRIPOS>BOND
     1    12    13    1
     2    13     1    1
     3     1     2    2
     4     2     3    1
     5     2     4    1
     6     4     5    2
     7     5     6    1
     8     6     7    1
     9     7     8    2
    10     8    14    1
    11    14    15    1
    12    15    16    2
    13    15    17   am
    14    17    19    1
    15    19    20   ar
    16    20    21   ar
    17    21    22   ar
    18    22    23   ar
    19    23    24   ar
    20     7     9    1
    21     9    10    1
    22    10    11    1
    23     6     1    1
    24    24    19   ar
    25    11     5    1
    26    17    18    1
@<TRIPOS>MOLECULE
*****
 24 26 0 0 0
SMALL
GASTEIGER

@<TRIPOS>ATOM
      1 C         141.1388  140.2231  168.2969 C.2     1  UNL1       -0.0205
      2 C         142.3801  139.7716  169.0076 C.2     1  UNL1        0.0514
      3 C         142.7407  140.0752  170.4316 C.3     1  UNL1        0.0514
      4 N         143.1977  138.9630  168.0443 N.2     1  UNL1       -0.2582
      5 C         142.4616  138.9149  166.7382 C.2     1  UNL1        0.0452
      6 C         141.1892  139.6936  166.8943 C.3     1  UNL1        0.0946
      7 C         140.2407  139.8200  165.7391 C.2     1  UNL1        0.0842
      8 N         138.9682  140.5988  165.8952 N.2     1  UNL1       -0.0801
      9 C         140.5647  139.1677  164.4278 C.3     1  UNL1        0.0457
     10 C         141.8371  138.3889  164.2717 C.3     1  UNL1        0.0120
     11 C         142.7856  138.2625  165.4269 C.3     1  UNL1        0.0424
     12 C         139.0533  140.4396  169.8311 C.3     1  UNL1        0.0047
     13 C         140.0400  141.0576  168.8853 C.3     1  UNL1        0.0239
     14 O         138.0198  140.7252  164.7400 O.3     1  UNL1       -0.2989
     15 C         138.2555  141.7666  163.6865 C.2     1  UNL1        0.4303
     16 O         137.2332  141.9915  162.6121 O.2     1  UNL1       -0.2237
     17 N         139.5136  142.5833  163.7074 N.am    1  UNL1       -0.2482
     18 H         140.1845  142.4357  164.4126 H       1  UNL1        0.1583
     19 C         139.7493  143.6247  162.6539 C.ar    1  UNL1        0.0532
     20 C         139.4545  145.0663  162.9451 C.ar    1  UNL1        0.0148
     21 C         139.6902  146.1077  161.8916 C.ar    1  UNL1        0.0013
     22 C         140.2207  145.7074  160.5468 C.ar    1  UNL1        0.0001
     23 C         140.5155  144.2658  160.2556 C.ar    1  UNL1        0.0013
     24 C         140.2798  143.2245  161.3091 C.ar    1  UNL1        0.0148
@<TRIPOS>BOND
     1    12    13    1
     2    13     1    1
     3     1     2    2
     4     2     3    1
     5     2     4    1
     6     4     5    2
     7     5     6    1
     8     6     7    1
     9     7     8    2
    10     8    14    1
    11    14    15    1
    12    15    16    2
    13    15    17   am
    14    17    19    1
    15    19    20   ar
    16    20    21   ar
    17    21    22   ar
    18    22    23   ar
    19    23    24   ar
    20     7     9    1
    21     9    10    1
    22    10    11    1
    23     6     1    1
    24    24    19   ar
    25    11     5    1
    26    17    18    1
@<TRIPOS>MOLECULE
*****
 24 26 0 0 0
SMALL
GASTEIGER

@<TRIPOS>ATOM
      1 C         143.6213  139.9432  162.1355 C.2     1  UNL1       -0.0205
      2 C         143.1618  140.1118  160.7176 C.2     1  UNL1        0.0514
      3 C         143.8467  140.9254  159.6597 C.3     1  UNL1        0.0514
      4 N         141.8972  139.3241  160.5434 N.2     1  UNL1       -0.2582
      5 C         141.5752  138.6686  161.8535 C.2     1  UNL1        0.0452
      6 C         142.6407  139.0512  162.8375 C.3     1  UNL1        0.0946
      7 C         142.5804  138.5379  164.2457 C.2     1  UNL1        0.0842
      8 N         143.6459  138.9206  165.2297 N.2     1  UNL1       -0.0801
      9 C         141.4545  137.6421  164.6699 C.3     1  UNL1        0.0457
     10 C         140.3890  137.2595  163.6859 C.3     1  UNL1        0.0120
     11 C         140.4493  137.7728  162.2777 C.3     1  UNL1        0.0424
     12 C         144.8097  141.9761  163.2331 C.3     1  UNL1        0.0047
     13 C         144.8463  140.5584  162.7444 C.3     1  UNL1        0.0239
     14 O         143.5856  138.4073  166.6379 O.3     1  UNL1       -0.2989
     15 C         142.8603  139.1909  167.6913 C.2     1  UNL1        0.4303
     16 O         142.9842  138.8011  169.1345 O.2     1  UNL1       -0.2237
     17 N         142.0110  140.3643  167.3017 N.am    1  UNL1       -0.2482
     18 H         141.9297  140.6202  166.3545 H       1  UNL1        0.1583
     19 C         141.2857  141.1479  168.3552 C.ar    1  UNL1        0.0532
     20 C         141.8050  142.4883  168.7837 C.ar    1  UNL1        0.0148
     21 C         141.0797  143.2718  169.8372 C.ar    1  UNL1        0.0013
     22 C         139.8350  142.7150  170.4622 C.ar    1  UNL1        0.0001
     23 C         139.3156  141.3747  170.0337 C.ar    1  UNL1        0.0013
     24 C         140.0409  140.5911  168.9802 C.ar    1  UNL1        0.0148
@<TRIPOS>BOND
     1    12    13    1
     2    13     1    1
     3     1     2    2
     4     2     3    1
     5     2     4    1
     6     4     5    2
     7     5     6    1
     8     6     7    1
     9     7     8    2
    10     8    14    1
    11    14    15    1
    12    15    16    2
    13    15    17   am
    14    17    19    1
    15    19    20   ar
    16    20    21   ar
    17    21    22   ar
    18    22    23   ar
    19    23    24   ar
    20     7     9    1
    21     9    10    1
    22    10    11    1
    23     6     1    1
    24    24    19   ar
    25    11     5    1
    26    17    18    1
@<TRIPOS>MOLECULE
*****
 24 26 0 0 0
SMALL
GASTEIGER

@<TRIPOS>ATOM
      1 C         140.0361  138.8861  162.0031 C.2     1  UNL1       -0.0205
      2 C         140.2533  139.2649  160.5681 C.2     1  UNL1        0.0514
      3 C         141.0578  138.4931  159.5645 C.3     1  UNL1        0.0514
      4 N         139.5248  140.5511  160.3129 N.2     1  UNL1       -0.2582
      5 C         138.8574  140.9672  161.5901 C.2     1  UNL1        0.0452
      6 C         139.1733  139.9382  162.6348 C.3     1  UNL1        0.0946
      7 C         138.6347  140.0922  164.0262 C.2     1  UNL1        0.0842
      8 N         138.9507  139.0631  165.0709 N.2     1  UNL1       -0.0801
      9 C         137.7800  141.2750  164.3730 C.3     1  UNL1        0.0457
     10 C         137.4641  142.3040  163.3284 C.3     1  UNL1        0.0120
     11 C         138.0027  142.1501  161.9369 C.3     1  UNL1        0.0424
     12 C         141.8925  137.7453  163.4180 C.3     1  UNL1        0.0047
     13 C         140.5852  137.6690  162.6866 C.3     1  UNL1        0.0239
     14 O         138.4120  139.2170  166.4623 O.3     1  UNL1       -0.2989
     15 C         139.2317  139.9074  167.5118 C.2     1  UNL1        0.4303
     16 O         139.0217  139.5829  168.9612 O.2     1  UNL1       -0.2237
     17 N         140.2613  140.9223  167.1120 N.am    1  UNL1       -0.2482
     18 H         140.3991  141.1353  166.1607 H       1  UNL1        0.1583
     19 C         141.0810  141.6127  168.1615 C.ar    1  UNL1        0.0532
     20 C         140.5186  142.7935  168.8959 C.ar    1  UNL1        0.0148
     21 C         141.3383  143.4839  169.9454 C.ar    1  UNL1        0.0013
     22 C         142.7204  142.9934  170.2605 C.ar    1  UNL1        0.0001
     23 C         143.2827  141.8125  169.5262 C.ar    1  UNL1        0.0013
     24 C         142.4630  141.1222  168.4767 C.ar    1  UNL1        0.0148
@<TRIPOS>BOND
     1    12    13    1
     2    13     1    1
     3     1     2    2
     4     2     3    1
     5     2     4    1
     6     4     5    2
     7     5     6    1
     8     6     7    1
     9     7     8    2
    10     8    14    1
    11    14    15    1
    12    15    16    2
    13    15    17   am
    14    17    19    1
    15    19    20   ar
    16    20    21   ar
    17    21    22   ar
    18    22    23   ar
    19    23    24   ar
    20     7     9    1
    21     9    10    1
    22    10    11    1
    23     6     1    1
    24    24    19   ar
    25    11     5    1
    26    17    18    1
@<TRIPOS>MOLECULE
*****
 24 26 0 0 0
SMALL
GASTEIGER

@<TRIPOS>ATOM
      1 C         138.1981  140.5524  161.0611 C.2     1  UNL1       -0.0205
      2 C         138.1511  141.4059  159.8285 C.2     1  UNL1        0.0514
      3 C         138.1515  140.9107  158.4125 C.3     1  UNL1        0.0514
      4 N         138.1036  142.8416  160.2604 N.2     1  UNL1       -0.2582
      5 C         138.1213  142.8754  161.7599 C.2     1  UNL1        0.0452
      6 C         138.1797  141.4606  162.2548 C.3     1  UNL1        0.0946
      7 C         138.2086  141.1821  163.7284 C.2     1  UNL1        0.0842
      8 N         138.2670  139.7673  164.2232 N.2     1  UNL1       -0.0801
      9 C         138.1791  142.3184  164.7071 C.3     1  UNL1        0.0457
     10 C         138.1206  143.7332  164.2123 C.3     1  UNL1        0.0120
     11 C         138.0917  144.0117  162.7386 C.3     1  UNL1        0.0424
     12 C         139.5587  138.3468  160.8766 C.3     1  UNL1        0.0047
     13 C         138.2538  139.0538  161.0942 C.3     1  UNL1        0.0239
     14 O         138.2959  139.4887  165.6969 O.3     1  UNL1       -0.2989
     15 C         139.5632  139.6903  166.4736 C.2     1  UNL1        0.4303
     16 O         140.8331  139.0329  166.0206 O.2     1  UNL1       -0.2237
     17 N         139.5606  140.5494  167.7032 N.am    1  UNL1       -0.2482
     18 H         138.7272  140.9809  168.0005 H       1  UNL1        0.1583
     19 C         140.8280  140.7510  168.4799 C.ar    1  UNL1        0.0532
     20 C         141.7521  141.8788  168.1277 C.ar    1  UNL1        0.0148
     21 C         143.0194  142.0803  168.9044 C.ar    1  UNL1        0.0013
     22 C         143.3626  141.1540  170.0333 C.ar    1  UNL1        0.0001
     23 C         142.4385  140.0263  170.3854 C.ar    1  UNL1        0.0013
     24 C         141.1712  139.8247  169.6087 C.ar    1  UNL1        0.0148
@<TRIPOS>BOND
     1    12    13    1
     2    13     1    1
     3     1     2    2
     4     2     3    1
     5     2     4    1
     6     4     5    2
     7     5     6    1
     8     6     7    1
     9     7     8    2
    10     8    14    1
    11    14    15    1
    12    15    16    2
    13    15    17   am
    14    17    19    1
    15    19    20   ar
    16    20    21   ar
    17    21    22   ar
    18    22    23   ar
    19    23    24   ar
    20     7     9    1
    21     9    10    1
    22    10    11    1
    23     6     1    1
    24    24    19   ar
    25    11     5    1
    26    17    18    1
@<TRIPOS>MOLECULE
*****
 24 26 0 0 0
SMALL
GASTEIGER

@<TRIPOS>ATOM
      1 C         140.2576  142.3021  165.5561 C.2     1  UNL1       -0.0205
      2 C         140.7562  141.3851  166.6334 C.2     1  UNL1        0.0514
      3 C         139.9202  140.4369  167.4408 C.3     1  UNL1        0.0514
      4 N         142.2376  141.5828  166.7614 N.2     1  UNL1       -0.2582
      5 C         142.6546  142.6220  165.7634 C.2     1  UNL1        0.0452
      6 C         141.4310  143.0666  165.0184 C.3     1  UNL1        0.0946
      7 C         141.5432  144.1101  163.9467 C.2     1  UNL1        0.0842
      8 N         140.3194  144.5546  163.2018 N.2     1  UNL1       -0.0801
      9 C         142.8790  144.7089  163.6200 C.3     1  UNL1        0.0457
     10 C         144.1027  144.2643  164.3649 C.3     1  UNL1        0.0120
     11 C         143.9905  143.2209  165.4366 C.3     1  UNL1        0.0424
     12 C         138.2249  141.3658  164.2366 C.3     1  UNL1        0.0047
     13 C         138.8355  142.4320  165.0971 C.3     1  UNL1        0.0239
     14 O         140.4316  145.5981  162.1301 O.3     1  UNL1       -0.2989
     15 C         140.5450  145.1871  160.6920 C.2     1  UNL1        0.4303
     16 O         139.4370  144.4104  160.0443 O.2     1  UNL1       -0.2237
     17 N         141.7662  145.5526  159.9014 N.am    1  UNL1       -0.2482
     18 H         142.4934  146.0623  160.3265 H       1  UNL1        0.1583
     19 C         141.8795  145.1415  158.4633 C.ar    1  UNL1        0.0532
     20 C         141.2253  145.9653  157.3940 C.ar    1  UNL1        0.0148
     21 C         141.3386  145.5541  155.9559 C.ar    1  UNL1        0.0013
     22 C         142.1061  144.3193  155.5871 C.ar    1  UNL1        0.0001
     23 C         142.7604  143.4955  156.6564 C.ar    1  UNL1        0.0013
     24 C         142.6470  143.9067  158.0945 C.ar    1  UNL1        0.0148
@<TRIPOS>BOND
     1    12    13    1
     2    13     1    1
     3     1     2    2
     4     2     3    1
     5     2     4    1
     6     4     5    2
     7     5     6    1
     8     6     7    1
     9     7     8    2
    10     8    14    1
    11    14    15    1
    12    15    16    2
    13    15    17   am
    14    17    19    1
    15    19    20   ar
    16    20    21   ar
    17    21    22   ar
    18    22    23   ar
    19    23    24   ar
    20     7     9    1
    21     9    10    1
    22    10    11    1
    23     6     1    1
    24    24    19   ar
    25    11     5    1
    26    17    18    1
@<TRIPOS>MOLECULE
*****
 24 26 0 0 0
SMALL
GASTEIGER

@<TRIPOS>ATOM
      1 C         139.8299  140.3585  166.1995 C.2     1  UNL1       -0.0205
      2 C         139.0638  139.5489  167.2032 C.2     1  UNL1        0.0514
      3 C         137.8352  138.7341  166.9259 C.3     1  UNL1        0.0514
      4 N         139.7418  139.6972  168.5330 N.2     1  UNL1       -0.2582
      5 C         140.9270  140.5983  168.3511 C.2     1  UNL1        0.0452
      6 C         140.9815  141.0071  166.9089 C.3     1  UNL1        0.0946
      7 C         142.0727  141.9170  166.4280 C.2     1  UNL1        0.0842
      8 N         142.1271  142.3257  164.9857 N.2     1  UNL1       -0.0801
      9 C         143.1094  142.4183  167.3892 C.3     1  UNL1        0.0457
     10 C         143.0549  142.0095  168.8314 C.3     1  UNL1        0.0120
     11 C         141.9637  141.0996  169.3123 C.3     1  UNL1        0.0424
     12 C         138.2760  141.2474  164.3167 C.3     1  UNL1        0.0047
     13 C         139.5021  140.4954  164.7421 C.3     1  UNL1        0.0239
     14 O         143.2183  143.2357  164.5047 O.3     1  UNL1       -0.2989
     15 C         143.2001  143.7490  163.0955 C.2     1  UNL1        0.4303
     16 O         144.1864  144.7940  162.6650 O.2     1  UNL1       -0.2237
     17 N         142.1956  143.2173  162.1165 N.am    1  UNL1       -0.2482
     18 H         141.5483  142.5314  162.3990 H       1  UNL1        0.1583
     19 C         142.1774  143.7306  160.7072 C.ar    1  UNL1        0.0532
     20 C         143.0997  143.1404  159.6820 C.ar    1  UNL1        0.0148
     21 C         143.0814  143.6537  158.2727 C.ar    1  UNL1        0.0013
     22 C         142.1410  144.7574  157.8886 C.ar    1  UNL1        0.0001
     23 C         141.2187  145.3476  158.9138 C.ar    1  UNL1        0.0013
     24 C         141.2369  144.8343  160.3231 C.ar    1  UNL1        0.0148
@<TRIPOS>BOND
     1    12    13    1
     2    13     1    1
     3     1     2    2
     4     2     3    1
     5     2     4    1
     6     4     5    2
     7     5     6    1
     8     6     7    1
     9     7     8    2
    10     8    14    1
    11    14    15    1
    12    15    16    2
    13    15    17   am
    14    17    19    1
    15    19    20   ar
    16    20    21   ar
    17    21    22   ar
    18    22    23   ar
    19    23    24   ar
    20     7     9    1
    21     9    10    1
    22    10    11    1
    23     6     1    1
    24    24    19   ar
    25    11     5    1
    26    17    18    1
@<TRIPOS>MOLECULE
*****
 24 26 0 0 0
SMALL
GASTEIGER

@<TRIPOS>ATOM
      1 C         141.2644  140.3930  168.4603 C.2     1  UNL1       -0.0205
      2 C         140.3437  140.2959  169.6405 C.2     1  UNL1        0.0514
      3 C         140.6890  140.6411  171.0589 C.3     1  UNL1        0.0514
      4 N         139.0171  139.7929  169.1534 N.2     1  UNL1       -0.2582
      5 C         139.1179  139.5792  167.6721 C.2     1  UNL1        0.0452
      6 C         140.5067  139.9501  167.2437 C.3     1  UNL1        0.0946
      7 C         140.9021  139.8365  165.8012 C.2     1  UNL1        0.0842
      8 N         142.2911  140.2074  165.3729 N.2     1  UNL1       -0.0801
      9 C         139.9087  139.3522  164.7871 C.3     1  UNL1        0.0457
     10 C         138.5199  138.9813  165.2155 C.3     1  UNL1        0.0120
     11 C         138.1245  139.0949  166.6580 C.3     1  UNL1        0.0424
     12 C         143.0084  142.3185  168.4798 C.3     1  UNL1        0.0047
     13 C         142.6920  140.8523  168.4911 C.3     1  UNL1        0.0239
     14 O         142.6865  140.0939  163.9304 O.3     1  UNL1       -0.2989
     15 C         142.6147  141.2960  163.0362 C.2     1  UNL1        0.4303
     16 O         143.8305  142.1495  162.8278 O.2     1  UNL1       -0.2237
     17 N         141.3270  141.6447  162.3504 N.am    1  UNL1       -0.2482
     18 H         140.5290  141.0846  162.4872 H       1  UNL1        0.1583
     19 C         141.2552  142.8469  161.4561 C.ar    1  UNL1        0.0532
     20 C         141.7172  142.7512  160.0323 C.ar    1  UNL1        0.0148
     21 C         141.6454  143.9534  159.1381 C.ar    1  UNL1        0.0013
     22 C         141.1116  145.2513  159.6678 C.ar    1  UNL1        0.0001
     23 C         140.6496  145.3470  161.0916 C.ar    1  UNL1        0.0013
     24 C         140.7214  144.1448  161.9858 C.ar    1  UNL1        0.0148
@<TRIPOS>BOND
     1    12    13    1
     2    13     1    1
     3     1     2    2
     4     2     3    1
     5     2     4    1
     6     4     5    2
     7     5     6    1
     8     6     7    1
     9     7     8    2
    10     8    14    1
    11    14    15    1
    12    15    16    2
    13    15    17   am
    14    17    19    1
    15    19    20   ar
    16    20    21   ar
    17    21    22   ar
    18    22    23   ar
    19    23    24   ar
    20     7     9    1
    21     9    10    1
    22    10    11    1
    23     6     1    1
    24    24    19   ar
    25    11     5    1
    26    17    18    1
