@<TRIPOS>MOLECULE
*****
 39 43 0 0 0
SMALL
GASTEIGER

@<TRIPOS>ATOM
      1 C         141.9607  138.8028  158.7839 C.3     1  UNL1        0.1031
      2 C         143.5542  142.3230  159.6891 C.ar    1  UNL1        0.0529
      3 C         144.5479  142.4789  158.5765 C.ar    1  UNL1        0.0147
      4 C         144.6793  141.4094  157.5329 C.ar    1  UNL1        0.0010
      5 C         143.8169  140.1841  157.6021 C.ar    1  UNL1       -0.0026
      6 C         142.8232  140.0282  158.7148 C.ar    1  UNL1       -0.0024
      7 C         142.6918  141.0977  159.7583 C.ar    1  UNL1        0.0121
      8 C         144.2808  143.3500  161.9623 C.2     1  UNL1        0.4054
      9 O         145.2702  142.2380  162.1484 O.2     1  UNL1       -0.2261
     10 N         143.4228  143.3925  160.7327 N.am    1  UNL1       -0.2499
     11 H         142.7734  144.1223  160.6105 H       1  UNL1        0.1582
     12 O         144.1494  144.4195  163.0058 O.3     1  UNL1       -0.4345
     13 C         144.5984  143.6676  165.4519 C.3     1  UNL1        0.0513
     14 C         143.6386  144.0743  164.3733 C.3     1  UNL1        0.2102
     15 C         141.8590  137.8894  157.5986 C.ar    1  UNL1       -0.0036
     16 C         140.7787  138.1005  156.5796 C.ar    1  UNL1       -0.0025
     17 C         140.6770  137.1869  155.3941 C.ar    1  UNL1        0.0042
     18 C         141.6556  136.0624  155.2277 C.ar    1  UNL1        0.0536
     19 C         142.7359  135.8513  156.2467 C.ar    1  UNL1        0.0042
     20 C         142.8377  136.7648  157.4321 C.ar    1  UNL1       -0.0025
     21 C         141.5539  135.1489  154.0423 C.2     1  UNL1        0.2490
     22 O         141.6335  135.7106  152.6536 O.2     1  UNL1       -0.2699
     23 N         141.3727  133.6739  154.2455 N.am    1  UNL1       -0.2760
     24 C         141.2535  132.7744  155.4400 C.3     1  UNL1        0.0955
     25 C         141.1163  131.5878  154.5329 C.3     1  UNL1        0.0430
     26 C         141.2354  132.4871  153.3383 C.3     1  UNL1        0.0955
     27 N         141.2000  138.4910  160.0386 N.3     1  UNL1       -0.2644
     28 C         139.7370  138.8099  160.1275 C.3     1  UNL1        0.0901
     29 C         138.9763  138.4980  161.3821 C.3     1  UNL1        0.0899
     30 N         139.6786  137.8673  162.5478 N.3     1  UNL1       -0.2665
     31 C         141.1417  137.5484  162.4590 C.3     1  UNL1        0.0899
     32 C         141.9024  137.8603  161.2043 C.3     1  UNL1        0.0901
     33 C         138.9179  137.5555  163.8025 C.3     1  UNL1        0.1008
     34 C         139.1185  138.3948  165.0294 C.ar    1  UNL1        0.0130
     35 C         140.2283  139.4029  165.0752 C.ar    1  UNL1        0.0002
     36 C         140.4289  140.2422  166.3021 C.ar    1  UNL1        0.0204
     37 C         139.5197  140.0734  167.4832 C.ar    1  UNL1        0.0989
     38 N         138.4100  139.0653  167.4374 N.ar    1  UNL1       -0.2426
     39 C         138.2093  138.2259  166.2104 C.ar    1  UNL1        0.0959
@<TRIPOS>BOND
     1    13    14    1
     2    14    12    1
     3    12     8    1
     4     8     9    2
     5     8    10   am
     6    10     2    1
     7     2     3   ar
     8     3     4   ar
     9     4     5   ar
    10     5     6   ar
    11     6     1    1
    12     1    15    1
    13    15    16   ar
    14    16    17   ar
    15    17    18   ar
    16    18    21    1
    17    21    22    2
    18    21    23   am
    19    23    24    1
    20    24    25    1
    21    25    26    1
    22    18    19   ar
    23    19    20   ar
    24     1    27    1
    25    27    28    1
    26    28    29    1
    27    29    30    1
    28    30    33    1
    29    33    34    1
    30    34    35   ar
    31    35    36   ar
    32    36    37   ar
    33    37    38   ar
    34    38    39   ar
    35    30    31    1
    36    31    32    1
    37     6     7   ar
    38     7     2   ar
    39    20    15   ar
    40    32    27    1
    41    26    23    1
    42    39    34   ar
    43    10    11    1
@<TRIPOS>MOLECULE
*****
 39 43 0 0 0
SMALL
GASTEIGER

@<TRIPOS>ATOM
      1 C         141.8379  141.0953  161.4986 C.3     1  UNL1        0.1031
      2 C         140.4501  144.5158  160.0409 C.ar    1  UNL1        0.0529
      3 C         140.5700  145.4054  161.2426 C.ar    1  UNL1        0.0147
      4 C         141.1125  144.8584  162.5297 C.ar    1  UNL1        0.0010
      5 C         141.5352  143.4217  162.6150 C.ar    1  UNL1       -0.0026
      6 C         141.4153  142.5321  161.4133 C.ar    1  UNL1       -0.0024
      7 C         140.8727  143.0791  160.1263 C.ar    1  UNL1        0.0121
      8 C         140.8104  145.8078  157.8159 C.2     1  UNL1        0.4054
      9 O         142.2558  146.0057  158.1648 O.2     1  UNL1       -0.2261
     10 N         139.9076  145.0628  158.7539 N.am    1  UNL1       -0.2499
     11 H         138.9590  144.9329  158.5249 H       1  UNL1        0.1582
     12 O         140.2679  146.3548  156.5289 O.3     1  UNL1       -0.4345
     13 C         138.9854  148.3009  155.3807 C.3     1  UNL1        0.0513
     14 C         139.1764  147.3836  156.5521 C.3     1  UNL1        0.2102
     15 C         142.1985  140.4972  162.8260 C.ar    1  UNL1       -0.0036
     16 C         141.1509  139.8038  163.6456 C.ar    1  UNL1       -0.0025
     17 C         141.5116  139.2056  164.9731 C.ar    1  UNL1        0.0042
     18 C         142.9198  139.3008  165.4809 C.ar    1  UNL1        0.0536
     19 C         143.9674  139.9942  164.6613 C.ar    1  UNL1        0.0042
     20 C         143.6068  140.5923  163.3338 C.ar    1  UNL1       -0.0025
     21 C         143.2804  138.7026  166.8083 C.2     1  UNL1        0.2490
     22 O         144.3188  137.6231  166.8873 O.2     1  UNL1       -0.2699
     23 N         142.6025  139.1840  168.0569 N.am    1  UNL1       -0.2760
     24 C         141.5521  140.2093  168.3657 C.3     1  UNL1        0.0955
     25 C         141.6440  139.8647  169.8226 C.3     1  UNL1        0.0430
     26 C         142.6944  138.8394  169.5139 C.3     1  UNL1        0.0955
     27 N         141.8999  140.2568  160.2564 N.3     1  UNL1       -0.2644
     28 C         140.7543  139.3559  159.9017 C.3     1  UNL1        0.0901
     29 C         140.8163  138.5174  158.6595 C.3     1  UNL1        0.0899
     30 N         142.0239  138.5798  157.7720 N.3     1  UNL1       -0.2665
     31 C         143.1696  139.4808  158.1266 C.3     1  UNL1        0.0899
     32 C         143.1076  140.3193  159.3688 C.3     1  UNL1        0.0901
     33 C         142.0859  137.7413  156.5298 C.3     1  UNL1        0.1008
     34 C         142.3439  136.2672  156.6320 C.ar    1  UNL1        0.0130
     35 C         141.6835  135.3219  155.6726 C.ar    1  UNL1        0.0002
     36 C         141.9415  133.8478  155.7749 C.ar    1  UNL1        0.0204
     37 C         142.8598  133.3190  156.8365 C.ar    1  UNL1        0.0989
     38 N         143.5201  134.2642  157.7959 N.ar    1  UNL1       -0.2426
     39 C         143.2621  135.7384  157.6937 C.ar    1  UNL1        0.0959
@<TRIPOS>BOND
     1    13    14    1
     2    14    12    1
     3    12     8    1
     4     8     9    2
     5     8    10   am
     6    10     2    1
     7     2     3   ar
     8     3     4   ar
     9     4     5   ar
    10     5     6   ar
    11     6     1    1
    12     1    15    1
    13    15    16   ar
    14    16    17   ar
    15    17    18   ar
    16    18    21    1
    17    21    22    2
    18    21    23   am
    19    23    24    1
    20    24    25    1
    21    25    26    1
    22    18    19   ar
    23    19    20   ar
    24     1    27    1
    25    27    28    1
    26    28    29    1
    27    29    30    1
    28    30    33    1
    29    33    34    1
    30    34    35   ar
    31    35    36   ar
    32    36    37   ar
    33    37    38   ar
    34    38    39   ar
    35    30    31    1
    36    31    32    1
    37     6     7   ar
    38     7     2   ar
    39    20    15   ar
    40    32    27    1
    41    26    23    1
    42    39    34   ar
    43    10    11    1
@<TRIPOS>MOLECULE
*****
 39 43 0 0 0
SMALL
GASTEIGER

@<TRIPOS>ATOM
      1 C         139.1241  140.4602  157.0491 C.3     1  UNL1        0.1031
      2 C         135.5201  141.0236  155.4858 C.ar    1  UNL1        0.0529
      3 C         135.8298  140.9364  154.0207 C.ar    1  UNL1        0.0147
      4 C         137.2376  140.6904  153.5651 C.ar    1  UNL1        0.0010
      5 C         138.3357  140.5316  154.5745 C.ar    1  UNL1       -0.0026
      6 C         138.0260  140.6189  156.0396 C.ar    1  UNL1       -0.0024
      7 C         136.6182  140.8649  156.4952 C.ar    1  UNL1        0.0121
      8 C         133.2913  140.1381  156.4849 C.2     1  UNL1        0.4054
      9 O         133.8782  138.7604  156.5729 O.2     1  UNL1       -0.2261
     10 N         134.1123  141.2696  155.9414 N.am    1  UNL1       -0.2499
     11 H         133.7271  142.1738  155.8837 H       1  UNL1        0.1582
     12 O         131.8835  140.3841  156.9406 O.3     1  UNL1       -0.4345
     13 C         130.5354  138.1893  156.6005 C.3     1  UNL1        0.0513
     14 C         131.0709  139.2576  157.5071 C.3     1  UNL1        0.2102
     15 C         139.1336  141.3080  158.2864 C.ar    1  UNL1       -0.0036
     16 C         139.6383  142.7192  158.2247 C.ar    1  UNL1       -0.0025
     17 C         139.6479  143.5671  159.4622 C.ar    1  UNL1        0.0042
     18 C         139.1528  143.0037  160.7612 C.ar    1  UNL1        0.0536
     19 C         138.6481  141.5925  160.8228 C.ar    1  UNL1        0.0042
     20 C         138.6385  140.7446  159.5855 C.ar    1  UNL1       -0.0025
     21 C         139.1623  143.8515  161.9985 C.2     1  UNL1        0.2490
     22 O         137.8865  144.4597  162.5009 O.2     1  UNL1       -0.2699
     23 N         140.4477  144.0912  162.7335 N.am    1  UNL1       -0.2760
     24 C         141.8736  143.6663  162.5431 C.3     1  UNL1        0.0955
     25 C         142.2656  144.4302  163.7730 C.3     1  UNL1        0.0430
     26 C         140.8397  144.8552  163.9635 C.3     1  UNL1        0.0955
     27 N         140.2126  139.4535  156.8212 N.3     1  UNL1       -0.2644
     28 C         141.6296  139.9098  156.6379 C.3     1  UNL1        0.0901
     29 C         142.7181  138.9032  156.4100 C.3     1  UNL1        0.0899
     30 N         142.3895  137.4403  156.3654 N.3     1  UNL1       -0.2665
     31 C         140.9724  136.9840  156.5488 C.3     1  UNL1        0.0899
     32 C         139.8839  137.9906  156.7767 C.3     1  UNL1        0.0901
     33 C         143.4780  136.4337  156.1375 C.3     1  UNL1        0.1008
     34 C         143.1410  134.9761  156.0294 C.ar    1  UNL1        0.0130
     35 C         142.7480  134.3934  154.7042 C.ar    1  UNL1        0.0002
     36 C         142.4110  132.9358  154.5961 C.ar    1  UNL1        0.0204
     37 C         142.4669  132.0608  155.8132 C.ar    1  UNL1        0.0989
     38 N         142.8598  132.6435  157.1384 N.ar    1  UNL1       -0.2426
     39 C         143.1968  134.1011  157.2465 C.ar    1  UNL1        0.0959
@<TRIPOS>BOND
     1    13    14    1
     2    14    12    1
     3    12     8    1
     4     8     9    2
     5     8    10   am
     6    10     2    1
     7     2     3   ar
     8     3     4   ar
     9     4     5   ar
    10     5     6   ar
    11     6     1    1
    12     1    15    1
    13    15    16   ar
    14    16    17   ar
    15    17    18   ar
    16    18    21    1
    17    21    22    2
    18    21    23   am
    19    23    24    1
    20    24    25    1
    21    25    26    1
    22    18    19   ar
    23    19    20   ar
    24     1    27    1
    25    27    28    1
    26    28    29    1
    27    29    30    1
    28    30    33    1
    29    33    34    1
    30    34    35   ar
    31    35    36   ar
    32    36    37   ar
    33    37    38   ar
    34    38    39   ar
    35    30    31    1
    36    31    32    1
    37     6     7   ar
    38     7     2   ar
    39    20    15   ar
    40    32    27    1
    41    26    23    1
    42    39    34   ar
    43    10    11    1
@<TRIPOS>MOLECULE
*****
 39 43 0 0 0
SMALL
GASTEIGER

@<TRIPOS>ATOM
      1 C         140.6917  139.2055  158.2156 C.3     1  UNL1        0.1031
      2 C         139.8846  143.0451  158.8124 C.ar    1  UNL1        0.0529
      3 C         140.0451  143.5877  157.4232 C.ar    1  UNL1        0.0147
      4 C         140.4211  142.6696  156.2982 C.ar    1  UNL1        0.0010
      5 C         140.6366  141.2089  156.5623 C.ar    1  UNL1       -0.0026
      6 C         140.4761  140.6663  157.9514 C.ar    1  UNL1       -0.0024
      7 C         140.1001  141.5843  159.0765 C.ar    1  UNL1        0.0121
      8 C         140.5495  144.8368  160.5724 C.2     1  UNL1        0.4054
      9 O         141.9665  144.7923  160.0823 O.2     1  UNL1       -0.2261
     10 N         139.5085  143.9631  159.9374 N.am    1  UNL1       -0.2499
     11 H         138.5785  143.9923  160.2591 H       1  UNL1        0.1582
     12 O         140.1734  145.7549  161.6974 O.3     1  UNL1       -0.4345
     13 C         139.8639  144.8052  164.0959 C.3     1  UNL1        0.0513
     14 C         139.2756  145.2668  162.7956 C.3     1  UNL1        0.2102
     15 C         140.8757  138.2553  157.0696 C.ar    1  UNL1       -0.0036
     16 C         139.6819  137.6061  156.4345 C.ar    1  UNL1       -0.0025
     17 C         139.8660  136.6559  155.2885 C.ar    1  UNL1        0.0042
     18 C         141.2439  136.3548  154.7777 C.ar    1  UNL1        0.0536
     19 C         142.4377  137.0040  155.4129 C.ar    1  UNL1        0.0042
     20 C         142.2536  137.9542  156.5588 C.ar    1  UNL1       -0.0025
     21 C         141.4279  135.4046  153.6318 C.2     1  UNL1        0.2490
     22 O         141.5805  135.9331  152.2363 O.2     1  UNL1       -0.2699
     23 N         141.4594  133.9258  153.8813 N.am    1  UNL1       -0.2760
     24 C         141.3443  133.0523  155.0952 C.3     1  UNL1        0.0955
     25 C         141.5039  131.8346  154.2342 C.3     1  UNL1        0.0430
     26 C         141.6191  132.7080  153.0202 C.3     1  UNL1        0.0955
     27 N         140.7232  138.6950  159.6257 N.3     1  UNL1       -0.2644
     28 C         142.0375  138.4645  160.3107 C.3     1  UNL1        0.0901
     29 C         142.0690  137.9540  161.7208 C.3     1  UNL1        0.0899
     30 N         140.7862  137.6740  162.4459 N.3     1  UNL1       -0.2665
     31 C         139.4717  137.9044  161.7609 C.3     1  UNL1        0.0899
     32 C         139.4402  138.4149  160.3508 C.3     1  UNL1        0.0901
     33 C         140.8177  137.1635  163.8560 C.3     1  UNL1        0.1008
     34 C         140.1844  137.9616  164.9569 C.ar    1  UNL1        0.0130
     35 C         138.7537  137.7154  165.3343 C.ar    1  UNL1        0.0002
     36 C         138.1204  138.5135  166.4352 C.ar    1  UNL1        0.0204
     37 C         138.9179  139.5578  167.1587 C.ar    1  UNL1        0.0989
     38 N         140.3486  139.8040  166.7814 N.ar    1  UNL1       -0.2426
     39 C         140.9819  139.0059  165.6804 C.ar    1  UNL1        0.0959
@<TRIPOS>BOND
     1    13    14    1
     2    14    12    1
     3    12     8    1
     4     8     9    2
     5     8    10   am
     6    10     2    1
     7     2     3   ar
     8     3     4   ar
     9     4     5   ar
    10     5     6   ar
    11     6     1    1
    12     1    15    1
    13    15    16   ar
    14    16    17   ar
    15    17    18   ar
    16    18    21    1
    17    21    22    2
    18    21    23   am
    19    23    24    1
    20    24    25    1
    21    25    26    1
    22    18    19   ar
    23    19    20   ar
    24     1    27    1
    25    27    28    1
    26    28    29    1
    27    29    30    1
    28    30    33    1
    29    33    34    1
    30    34    35   ar
    31    35    36   ar
    32    36    37   ar
    33    37    38   ar
    34    38    39   ar
    35    30    31    1
    36    31    32    1
    37     6     7   ar
    38     7     2   ar
    39    20    15   ar
    40    32    27    1
    41    26    23    1
    42    39    34   ar
    43    10    11    1
@<TRIPOS>MOLECULE
*****
 39 43 0 0 0
SMALL
GASTEIGER

@<TRIPOS>ATOM
      1 C         141.5272  141.5453  162.7948 C.3     1  UNL1        0.1031
      2 C         141.0626  144.9846  160.8697 C.ar    1  UNL1        0.0529
      3 C         140.0734  145.6764  161.7600 C.ar    1  UNL1        0.0147
      4 C         139.5688  144.9912  162.9953 C.ar    1  UNL1        0.0010
      5 C         140.0534  143.6142  163.3402 C.ar    1  UNL1       -0.0026
      6 C         141.0426  142.9224  162.4499 C.ar    1  UNL1       -0.0024
      7 C         141.5472  143.6076  161.2146 C.ar    1  UNL1        0.0121
      8 C         140.9296  145.3872  158.3065 C.2     1  UNL1        0.4054
      9 O         139.7872  144.4195  158.2137 O.2     1  UNL1       -0.2261
     10 N         141.5673  145.6697  159.6344 N.am    1  UNL1       -0.2499
     11 H         142.3171  146.3049  159.6953 H       1  UNL1        0.1582
     12 O         141.4342  146.0724  157.0712 O.3     1  UNL1       -0.4345
     13 C         139.2957  147.2200  156.1440 C.3     1  UNL1        0.0513
     14 C         140.4986  146.3494  155.9319 C.3     1  UNL1        0.2102
     15 C         141.7176  141.1549  164.2305 C.ar    1  UNL1       -0.0036
     16 C         142.7997  141.7988  165.0457 C.ar    1  UNL1       -0.0025
     17 C         142.9900  141.4084  166.4815 C.ar    1  UNL1        0.0042
     18 C         142.0983  140.3741  167.1020 C.ar    1  UNL1        0.0536
     19 C         141.0162  139.7302  166.2868 C.ar    1  UNL1        0.0042
     20 C         140.8258  140.1206  164.8511 C.ar    1  UNL1       -0.0025
     21 C         142.2886  139.9837  168.5377 C.2     1  UNL1        0.2490
     22 O         143.0936  138.7661  168.8835 O.2     1  UNL1       -0.2699
     23 N         141.6740  140.8109  169.6277 N.am    1  UNL1       -0.2760
     24 C         140.8331  142.0522  169.6712 C.3     1  UNL1        0.0955
     25 C         140.8049  141.9806  171.1692 C.3     1  UNL1        0.0430
     26 C         141.6458  140.7393  171.1258 C.3     1  UNL1        0.0955
     27 N         141.8215  140.5587  161.7039 N.3     1  UNL1       -0.2644
     28 C         143.2335  140.3493  161.2429 C.3     1  UNL1        0.0901
     29 C         143.5277  139.3627  160.1521 C.3     1  UNL1        0.0899
     30 N         142.4101  138.5855  159.5222 N.3     1  UNL1       -0.2665
     31 C         140.9981  138.7949  159.9831 C.3     1  UNL1        0.0899
     32 C         140.7038  139.7815  161.0740 C.3     1  UNL1        0.0901
     33 C         142.7044  137.5989  158.4313 C.3     1  UNL1        0.1008
     34 C         142.1769  137.8323  157.0466 C.ar    1  UNL1        0.0130
     35 C         140.9284  137.1358  156.5923 C.ar    1  UNL1        0.0002
     36 C         140.4010  137.3691  155.2077 C.ar    1  UNL1        0.0204
     37 C         141.1219  138.2990  154.2773 C.ar    1  UNL1        0.0989
     38 N         142.3703  138.9955  154.7315 N.ar    1  UNL1       -0.2426
     39 C         142.8978  138.7621  156.1162 C.ar    1  UNL1        0.0959
@<TRIPOS>BOND
     1    13    14    1
     2    14    12    1
     3    12     8    1
     4     8     9    2
     5     8    10   am
     6    10     2    1
     7     2     3   ar
     8     3     4   ar
     9     4     5   ar
    10     5     6   ar
    11     6     1    1
    12     1    15    1
    13    15    16   ar
    14    16    17   ar
    15    17    18   ar
    16    18    21    1
    17    21    22    2
    18    21    23   am
    19    23    24    1
    20    24    25    1
    21    25    26    1
    22    18    19   ar
    23    19    20   ar
    24     1    27    1
    25    27    28    1
    26    28    29    1
    27    29    30    1
    28    30    33    1
    29    33    34    1
    30    34    35   ar
    31    35    36   ar
    32    36    37   ar
    33    37    38   ar
    34    38    39   ar
    35    30    31    1
    36    31    32    1
    37     6     7   ar
    38     7     2   ar
    39    20    15   ar
    40    32    27    1
    41    26    23    1
    42    39    34   ar
    43    10    11    1
@<TRIPOS>MOLECULE
*****
 39 43 0 0 0
SMALL
GASTEIGER

@<TRIPOS>ATOM
      1 C         143.9834  142.4264  159.1895 C.3     1  UNL1        0.1031
      2 C         141.0782  144.9883  160.0537 C.ar    1  UNL1        0.0529
      3 C         140.9177  145.6894  158.7375 C.ar    1  UNL1        0.0147
      4 C         141.7791  145.3029  157.5719 C.ar    1  UNL1        0.0010
      5 C         142.8010  144.2153  157.7225 C.ar    1  UNL1       -0.0026
      6 C         142.9614  143.5141  159.0388 C.ar    1  UNL1       -0.0024
      7 C         142.1001  143.9006  160.2044 C.ar    1  UNL1        0.0121
      8 C         139.0198  144.5439  161.5754 C.2     1  UNL1        0.4054
      9 O         138.6841  143.3265  160.7659 O.2     1  UNL1       -0.2261
     10 N         140.2168  145.3748  161.2194 N.am    1  UNL1       -0.2499
     11 H         140.4371  146.1738  161.7507 H       1  UNL1        0.1582
     12 O         138.1584  144.9304  162.7410 O.3     1  UNL1       -0.4345
     13 C         138.6526  144.8381  165.2900 C.3     1  UNL1        0.0513
     14 C         138.2368  144.1535  164.0218 C.3     1  UNL1        0.2102
     15 C         144.1175  141.6989  160.4944 C.ar    1  UNL1       -0.0036
     16 C         143.4221  140.3852  160.6956 C.ar    1  UNL1       -0.0025
     17 C         143.5563  139.6577  162.0006 C.ar    1  UNL1        0.0042
     18 C         144.3858  140.2440  163.1042 C.ar    1  UNL1        0.0536
     19 C         145.0813  141.5577  162.9030 C.ar    1  UNL1        0.0042
     20 C         144.9471  142.2852  161.5981 C.ar    1  UNL1       -0.0025
     21 C         144.5200  139.5165  164.4091 C.2     1  UNL1        0.2490
     22 O         145.8068  138.8276  164.7549 O.2     1  UNL1       -0.2699
     23 N         143.3674  139.4779  165.3682 N.am    1  UNL1       -0.2760
     24 C         141.9722  140.0289  165.3726 C.3     1  UNL1        0.0955
     25 C         141.7373  139.4234  166.7246 C.3     1  UNL1        0.0430
     26 C         143.1324  138.8724  166.7204 C.3     1  UNL1        0.0955
     27 N         144.8711  142.0662  158.0353 N.3     1  UNL1       -0.2644
     28 C         144.4691  140.9703  157.0934 C.3     1  UNL1        0.0901
     29 C         145.3568  140.6101  155.9392 C.3     1  UNL1        0.0899
     30 N         146.6465  141.3459  155.7268 N.3     1  UNL1       -0.2665
     31 C         147.0486  142.4419  156.6688 C.3     1  UNL1        0.0899
     32 C         146.1609  142.8021  157.8230 C.3     1  UNL1        0.0901
     33 C         147.5343  140.9857  154.5726 C.3     1  UNL1        0.1008
     34 C         148.7492  141.8132  154.2741 C.ar    1  UNL1        0.0130
     35 C         150.0604  141.4816  154.9229 C.ar    1  UNL1        0.0002
     36 C         151.2754  142.3091  154.6244 C.ar    1  UNL1        0.0204
     37 C         151.1792  143.4682  153.6772 C.ar    1  UNL1        0.0989
     38 N         149.8680  143.7998  153.0284 N.ar    1  UNL1       -0.2426
     39 C         148.6530  142.9723  153.3269 C.ar    1  UNL1        0.0959
@<TRIPOS>BOND
     1    13    14    1
     2    14    12    1
     3    12     8    1
     4     8     9    2
     5     8    10   am
     6    10     2    1
     7     2     3   ar
     8     3     4   ar
     9     4     5   ar
    10     5     6   ar
    11     6     1    1
    12     1    15    1
    13    15    16   ar
    14    16    17   ar
    15    17    18   ar
    16    18    21    1
    17    21    22    2
    18    21    23   am
    19    23    24    1
    20    24    25    1
    21    25    26    1
    22    18    19   ar
    23    19    20   ar
    24     1    27    1
    25    27    28    1
    26    28    29    1
    27    29    30    1
    28    30    33    1
    29    33    34    1
    30    34    35   ar
    31    35    36   ar
    32    36    37   ar
    33    37    38   ar
    34    38    39   ar
    35    30    31    1
    36    31    32    1
    37     6     7   ar
    38     7     2   ar
    39    20    15   ar
    40    32    27    1
    41    26    23    1
    42    39    34   ar
    43    10    11    1
@<TRIPOS>MOLECULE
*****
 39 43 0 0 0
SMALL
GASTEIGER

@<TRIPOS>ATOM
      1 C         141.6334  141.3794  162.0205 C.3     1  UNL1        0.1031
      2 C         140.3585  144.6710  160.2066 C.ar    1  UNL1        0.0529
      3 C         140.4604  145.6675  161.3231 C.ar    1  UNL1        0.0147
      4 C         140.9532  145.2346  162.6721 C.ar    1  UNL1        0.0010
      5 C         141.3442  143.8052  162.9046 C.ar    1  UNL1       -0.0026
      6 C         141.2423  142.8088  161.7880 C.ar    1  UNL1       -0.0024
      7 C         140.7495  143.2417  160.4391 C.ar    1  UNL1        0.0121
      8 C         140.8057  145.7614  157.8912 C.2     1  UNL1        0.4054
      9 O         142.2387  145.9860  158.2738 O.2     1  UNL1       -0.2261
     10 N         139.8657  145.1039  158.8577 N.am    1  UNL1       -0.2499
     11 H         138.9252  144.9565  158.6066 H       1  UNL1        0.1582
     12 O         140.3129  146.1943  156.5423 O.3     1  UNL1       -0.4345
     13 C         139.0904  148.0328  155.1728 C.3     1  UNL1        0.0513
     14 C         139.2389  147.2360  156.4350 C.3     1  UNL1        0.2102
     15 C         141.7493  140.4354  160.8605 C.ar    1  UNL1       -0.0036
     16 C         140.6146  139.5122  160.5285 C.ar    1  UNL1       -0.0025
     17 C         140.7306  138.5682  159.3685 C.ar    1  UNL1        0.0042
     18 C         141.9812  138.5475  158.5406 C.ar    1  UNL1        0.0536
     19 C         143.1159  139.4708  158.8726 C.ar    1  UNL1        0.0042
     20 C         142.9999  140.4147  160.0325 C.ar    1  UNL1       -0.0025
     21 C         142.0972  137.6036  157.3806 C.2     1  UNL1        0.2490
     22 O         143.3994  136.9128  157.1031 O.2     1  UNL1       -0.2699
     23 N         140.9109  137.3504  156.4982 N.am    1  UNL1       -0.2760
     24 C         139.4931  137.8387  156.4611 C.3     1  UNL1        0.0955
     25 C         139.2333  136.9923  155.2503 C.3     1  UNL1        0.0430
     26 C         140.6510  136.5040  155.2874 C.3     1  UNL1        0.0955
     27 N         141.9084  140.8940  163.4128 N.3     1  UNL1       -0.2644
     28 C         143.3229  140.7287  163.8838 C.3     1  UNL1        0.0901
     29 C         143.5979  140.2433  165.2762 C.3     1  UNL1        0.0899
     30 N         142.4585  139.9232  166.1976 N.3     1  UNL1       -0.2665
     31 C         141.0439  140.0884  165.7267 C.3     1  UNL1        0.0899
     32 C         140.7688  140.5738  164.3343 C.3     1  UNL1        0.0901
     33 C         142.7335  139.4378  167.5900 C.3     1  UNL1        0.1008
     34 C         142.3561  140.2859  168.7682 C.ar    1  UNL1        0.0130
     35 C         141.3907  139.7629  169.7903 C.ar    1  UNL1        0.0002
     36 C         141.0132  140.6111  170.9684 C.ar    1  UNL1        0.0204
     37 C         141.6012  141.9822  171.1247 C.ar    1  UNL1        0.0989
     38 N         142.5666  142.5051  170.1027 N.ar    1  UNL1       -0.2426
     39 C         142.9440  141.6570  168.9244 C.ar    1  UNL1        0.0959
@<TRIPOS>BOND
     1    13    14    1
     2    14    12    1
     3    12     8    1
     4     8     9    2
     5     8    10   am
     6    10     2    1
     7     2     3   ar
     8     3     4   ar
     9     4     5   ar
    10     5     6   ar
    11     6     1    1
    12     1    15    1
    13    15    16   ar
    14    16    17   ar
    15    17    18   ar
    16    18    21    1
    17    21    22    2
    18    21    23   am
    19    23    24    1
    20    24    25    1
    21    25    26    1
    22    18    19   ar
    23    19    20   ar
    24     1    27    1
    25    27    28    1
    26    28    29    1
    27    29    30    1
    28    30    33    1
    29    33    34    1
    30    34    35   ar
    31    35    36   ar
    32    36    37   ar
    33    37    38   ar
    34    38    39   ar
    35    30    31    1
    36    31    32    1
    37     6     7   ar
    38     7     2   ar
    39    20    15   ar
    40    32    27    1
    41    26    23    1
    42    39    34   ar
    43    10    11    1
@<TRIPOS>MOLECULE
*****
 39 43 0 0 0
SMALL
GASTEIGER

@<TRIPOS>ATOM
      1 C         138.8495  140.0802  156.0089 C.3     1  UNL1        0.1031
      2 C         135.0050  140.7050  155.2477 C.ar    1  UNL1        0.0529
      3 C         134.9770  140.5203  153.7594 C.ar    1  UNL1        0.0147
      4 C         136.2399  140.1890  153.0209 C.ar    1  UNL1        0.0010
      5 C         137.5307  140.0423  153.7707 C.ar    1  UNL1       -0.0026
      6 C         137.5586  140.2269  155.2590 C.ar    1  UNL1       -0.0024
      7 C         136.2957  140.5583  155.9975 C.ar    1  UNL1        0.0121
      8 C         133.0166  139.9675  156.7485 C.2     1  UNL1        0.4054
      9 O         133.5541  138.5672  156.7725 O.2     1  UNL1       -0.2261
     10 N         133.7421  141.0363  155.9861 N.am    1  UNL1       -0.2499
     11 H         133.3893  141.9553  155.9704 H       1  UNL1        0.1582
     12 O         131.7537  140.2988  157.4870 O.3     1  UNL1       -0.4345
     13 C         130.1831  138.4176  158.3498 C.3     1  UNL1        0.0513
     14 C         130.5354  139.4414  157.3117 C.3     1  UNL1        0.2102
     15 C         139.1622  141.0010  157.1510 C.ar    1  UNL1       -0.0036
     16 C         139.3212  140.4497  158.5369 C.ar    1  UNL1       -0.0025
     17 C         139.6340  141.3706  159.6790 C.ar    1  UNL1        0.0042
     18 C         139.7876  142.8426  159.4351 C.ar    1  UNL1        0.0536
     19 C         139.6285  143.3939  158.0492 C.ar    1  UNL1        0.0042
     20 C         139.3158  142.4731  156.9071 C.ar    1  UNL1       -0.0025
     21 C         140.1003  143.7634  160.5772 C.2     1  UNL1        0.2490
     22 O         141.3384  144.6095  160.5411 O.2     1  UNL1       -0.2699
     23 N         139.1750  143.8381  161.7554 N.am    1  UNL1       -0.2760
     24 C         137.8876  143.1696  162.1371 C.3     1  UNL1        0.0955
     25 C         137.8664  143.9437  163.4216 C.3     1  UNL1        0.0430
     26 C         139.1538  144.6122  163.0401 C.3     1  UNL1        0.0955
     27 N         139.8275  139.0127  155.6167 N.3     1  UNL1       -0.2644
     28 C         139.4356  137.5675  155.7043 C.3     1  UNL1        0.0901
     29 C         140.4137  136.5001  155.3121 C.3     1  UNL1        0.0899
     30 N         141.7837  136.8778  154.8323 N.3     1  UNL1       -0.2665
     31 C         142.1757  138.3230  154.7446 C.3     1  UNL1        0.0899
     32 C         141.1977  139.3905  155.1369 C.3     1  UNL1        0.0901
     33 C         142.7618  135.8103  154.4400 C.3     1  UNL1        0.1008
     34 C         142.9914  134.6349  155.3432 C.ar    1  UNL1        0.0130
     35 C         142.7762  133.2417  154.8305 C.ar    1  UNL1        0.0002
     36 C         143.0058  132.0664  155.7337 C.ar    1  UNL1        0.0204
     37 C         143.4505  132.2841  157.1496 C.ar    1  UNL1        0.0989
     38 N         143.6657  133.6772  157.6623 N.ar    1  UNL1       -0.2426
     39 C         143.4361  134.8526  156.7591 C.ar    1  UNL1        0.0959
@<TRIPOS>BOND
     1    13    14    1
     2    14    12    1
     3    12     8    1
     4     8     9    2
     5     8    10   am
     6    10     2    1
     7     2     3   ar
     8     3     4   ar
     9     4     5   ar
    10     5     6   ar
    11     6     1    1
    12     1    15    1
    13    15    16   ar
    14    16    17   ar
    15    17    18   ar
    16    18    21    1
    17    21    22    2
    18    21    23   am
    19    23    24    1
    20    24    25    1
    21    25    26    1
    22    18    19   ar
    23    19    20   ar
    24     1    27    1
    25    27    28    1
    26    28    29    1
    27    29    30    1
    28    30    33    1
    29    33    34    1
    30    34    35   ar
    31    35    36   ar
    32    36    37   ar
    33    37    38   ar
    34    38    39   ar
    35    30    31    1
    36    31    32    1
    37     6     7   ar
    38     7     2   ar
    39    20    15   ar
    40    32    27    1
    41    26    23    1
    42    39    34   ar
    43    10    11    1
@<TRIPOS>MOLECULE
*****
 39 43 0 0 0
SMALL
GASTEIGER

@<TRIPOS>ATOM
      1 C         141.8094  139.4138  158.3858 C.3     1  UNL1        0.1031
      2 C         140.3123  143.0860  158.2332 C.ar    1  UNL1        0.0529
      3 C         140.6770  143.4829  156.8334 C.ar    1  UNL1        0.0147
      4 C         141.4192  142.5233  155.9511 C.ar    1  UNL1        0.0010
      5 C         141.7967  141.1670  156.4685 C.ar    1  UNL1       -0.0026
      6 C         141.4319  140.7702  157.8683 C.ar    1  UNL1       -0.0024
      7 C         140.6897  141.7297  158.7506 C.ar    1  UNL1        0.0121
      8 C         140.3163  145.1189  159.8510 C.2     1  UNL1        0.4054
      9 O         141.8048  145.2328  159.7042 O.2     1  UNL1       -0.2261
     10 N         139.5701  144.0455  159.1155 N.am    1  UNL1       -0.2499
     11 H         138.5932  143.9708  159.2118 H       1  UNL1        0.1582
     12 O         139.5741  146.0784  160.7333 O.3     1  UNL1       -0.4345
     13 C         138.8504  144.8252  162.8910 C.3     1  UNL1        0.0513
     14 C         139.6275  145.9213  162.2241 C.3     1  UNL1        0.2102
     15 C         141.7139  138.2155  157.4887 C.ar    1  UNL1       -0.0036
     16 C         142.9417  137.4123  157.1768 C.ar    1  UNL1       -0.0025
     17 C         142.8461  136.2139  156.2796 C.ar    1  UNL1        0.0042
     18 C         141.5228  135.8188  155.6944 C.ar    1  UNL1        0.0536
     19 C         140.2949  136.6220  156.0063 C.ar    1  UNL1        0.0042
     20 C         140.3904  137.8203  156.9034 C.ar    1  UNL1       -0.0025
     21 C         141.4272  134.6205  154.7973 C.2     1  UNL1        0.2490
     22 O         140.8512  134.7593  153.4192 O.2     1  UNL1       -0.2699
     23 N         141.9077  133.2834  155.2781 N.am    1  UNL1       -0.2760
     24 C         142.5215  132.7703  156.5470 C.3     1  UNL1        0.0955
     25 C         142.5871  131.3924  155.9582 C.3     1  UNL1        0.0430
     26 C         141.9733  131.9053  154.6893 C.3     1  UNL1        0.0955
     27 N         142.2824  139.2558  159.8005 N.3     1  UNL1       -0.2644
     28 C         141.4322  138.5270  160.7986 C.3     1  UNL1        0.0901
     29 C         141.9052  138.3690  162.2133 C.3     1  UNL1        0.0899
     30 N         143.2283  138.9398  162.6299 N.3     1  UNL1       -0.2665
     31 C         144.0785  139.6686  161.6318 C.3     1  UNL1        0.0899
     32 C         143.6055  139.8266  160.2171 C.3     1  UNL1        0.0901
     33 C         143.7013  138.7818  164.0446 C.3     1  UNL1        0.1008
     34 C         143.2098  139.7177  165.1087 C.ar    1  UNL1        0.0130
     35 C         142.9996  139.2189  166.5077 C.ar    1  UNL1        0.0002
     36 C         142.5081  140.1549  167.5717 C.ar    1  UNL1        0.0204
     37 C         142.2268  141.5897  167.2369 C.ar    1  UNL1        0.0989
     38 N         142.4369  142.0886  165.8381 N.ar    1  UNL1       -0.2426
     39 C         142.9284  141.1526  164.7739 C.ar    1  UNL1        0.0959
@<TRIPOS>BOND
     1    13    14    1
     2    14    12    1
     3    12     8    1
     4     8     9    2
     5     8    10   am
     6    10     2    1
     7     2     3   ar
     8     3     4   ar
     9     4     5   ar
    10     5     6   ar
    11     6     1    1
    12     1    15    1
    13    15    16   ar
    14    16    17   ar
    15    17    18   ar
    16    18    21    1
    17    21    22    2
    18    21    23   am
    19    23    24    1
    20    24    25    1
    21    25    26    1
    22    18    19   ar
    23    19    20   ar
    24     1    27    1
    25    27    28    1
    26    28    29    1
    27    29    30    1
    28    30    33    1
    29    33    34    1
    30    34    35   ar
    31    35    36   ar
    32    36    37   ar
    33    37    38   ar
    34    38    39   ar
    35    30    31    1
    36    31    32    1
    37     6     7   ar
    38     7     2   ar
    39    20    15   ar
    40    32    27    1
    41    26    23    1
    42    39    34   ar
    43    10    11    1
