@<TRIPOS>MOLECULE
*****
 26 28 0 0 0
SMALL
GASTEIGER

@<TRIPOS>ATOM
      1 C         145.0502  143.2182  165.4486 C.3     1  UNL1        0.0327
      2 C         143.5713  142.9817  165.5314 C.ar    1  UNL1       -0.0009
      3 C         142.8769  142.0710  166.5000 C.ar    1  UNL1        0.0727
      4 N         141.4036  142.1410  166.2273 N.ar    1  UNL1       -0.3135
      5 C         141.1874  143.0950  165.0901 C.ar    1  UNL1        0.1444
      6 N         139.9437  143.5576  164.3907 N.ar    1  UNL1       -0.2237
      7 C         140.0398  144.5398  163.2612 C.ar    1  UNL1        0.1366
      8 C         141.3796  145.0595  162.8310 C.ar    1  UNL1        0.0352
      9 C         142.6233  144.5968  163.5304 C.ar    1  UNL1        0.0619
     10 CL        143.9630  145.1164  163.1003 Cl      1  UNL1       -0.0821
     11 C         142.5272  143.6146  164.6600 C.ar    1  UNL1        0.0422
     12 C         138.7961  145.0025  162.5617 C.2     1  UNL1        0.2606
     13 N         137.4891  144.3140  162.8218 N.am    1  UNL1       -0.3241
     14 O         138.8594  146.1537  161.6022 O.2     1  UNL1       -0.2687
     15 H         137.4476  143.5584  163.4516 H       1  UNL1        0.1453
     16 H         136.6728  144.6176  162.3628 H       1  UNL1        0.1453
     17 C         140.3341  141.3890  166.9627 C.3     1  UNL1        0.0896
     18 C         139.2469  140.6925  166.1993 C.3     1  UNL1        0.0246
     19 C         140.3518  141.3336  168.4617 C.3     1  UNL1        0.0562
     20 C         140.4948  140.0147  169.1618 C.3     1  UNL1        0.0217
     21 C         140.5125  139.9594  170.6606 C.3     1  UNL1        0.0688
     22 N         140.3872  141.2228  171.4594 N.3     1  UNL1       -0.2952
     23 C         140.2441  142.5417  170.7593 C.3     1  UNL1        0.1043
     24 C         140.2264  142.5970  169.2604 C.3     1  UNL1        0.1784
     25 F         140.0834  143.9159  168.5602 F       1  UNL1       -0.2357
     26 H         141.2224  141.2874  172.0412 H       1  UNL1        0.1233
@<TRIPOS>BOND
     1     1     2    1
     2     2     3   ar
     3     3     4   ar
     4     4    17    1
     5    17    18    1
     6    17    19    1
     7    19    20    1
     8    20    21    1
     9    21    22    1
    10    22    23    1
    11    23    24    1
    12    24    25    1
    13     4     5   ar
    14     5     6   ar
    15     6     7   ar
    16     7    12    1
    17    12    13   am
    18    12    14    2
    19     7     8   ar
    20     8     9   ar
    21     9    10    1
    22     9    11   ar
    23    11     2   ar
    24    24    19    1
    25    11     5   ar
    26    22    26    1
    27    13    15    1
    28    13    16    1
@<TRIPOS>MOLECULE
*****
 26 28 0 0 0
SMALL
GASTEIGER

@<TRIPOS>ATOM
      1 C         138.8541  144.6851  165.1651 C.3     1  UNL1        0.0327
      2 C         139.4502  143.3260  165.3834 C.ar    1  UNL1       -0.0009
      3 C         140.3488  142.9291  166.5169 C.ar    1  UNL1        0.0727
      4 N         140.7063  141.4831  166.3405 N.ar    1  UNL1       -0.3135
      5 C         140.0286  140.9863  165.0979 C.ar    1  UNL1        0.1444
      6 N         140.0181  139.6439  164.4287 N.ar    1  UNL1       -0.2237
      7 C         139.2312  139.4406  163.1680 C.ar    1  UNL1        0.1366
      8 C         138.4549  140.5796  162.5765 C.ar    1  UNL1        0.0352
      9 C         138.4654  141.9220  163.2457 C.ar    1  UNL1        0.0619
     10 CL        137.6890  143.0610  162.6542 Cl      1  UNL1       -0.0821
     11 C         139.2522  142.1253  164.5064 C.ar    1  UNL1        0.0422
     12 C         139.2207  138.0982  162.4987 C.2     1  UNL1        0.2606
     13 N         137.9755  137.6077  161.8211 N.am    1  UNL1       -0.3241
     14 O         140.4552  137.2463  162.5070 O.2     1  UNL1       -0.2687
     15 H         137.1653  138.1668  161.8157 H       1  UNL1        0.1453
     16 H         137.9686  136.7267  161.3819 H       1  UNL1        0.1453
     17 C         141.5869  140.6755  167.2473 C.3     1  UNL1        0.0896
     18 C         142.7501  139.9158  166.6820 C.3     1  UNL1        0.0246
     19 C         141.3043  140.6277  168.7198 C.3     1  UNL1        0.0562
     20 C         142.3555  141.0577  169.6996 C.3     1  UNL1        0.0217
     21 C         142.0728  141.0098  171.1719 C.3     1  UNL1        0.0688
     22 N         140.7390  140.5321  171.6644 N.3     1  UNL1       -0.2952
     23 C         139.6877  140.1021  170.6846 C.3     1  UNL1        0.1043
     24 C         139.9704  140.1500  169.2123 C.3     1  UNL1        0.1784
     25 F         138.9192  139.7200  168.2324 F       1  UNL1       -0.2357
     26 H         140.3374  141.2932  172.2120 H       1  UNL1        0.1233
@<TRIPOS>BOND
     1     1     2    1
     2     2     3   ar
     3     3     4   ar
     4     4    17    1
     5    17    18    1
     6    17    19    1
     7    19    20    1
     8    20    21    1
     9    21    22    1
    10    22    23    1
    11    23    24    1
    12    24    25    1
    13     4     5   ar
    14     5     6   ar
    15     6     7   ar
    16     7    12    1
    17    12    13   am
    18    12    14    2
    19     7     8   ar
    20     8     9   ar
    21     9    10    1
    22     9    11   ar
    23    11     2   ar
    24    24    19    1
    25    11     5   ar
    26    22    26    1
    27    13    15    1
    28    13    16    1
@<TRIPOS>MOLECULE
*****
 26 28 0 0 0
SMALL
GASTEIGER

@<TRIPOS>ATOM
      1 C         138.4115  139.0987  166.1612 C.3     1  UNL1        0.0327
      2 C         139.7430  139.7863  166.0968 C.ar    1  UNL1       -0.0009
      3 C         140.6035  139.9290  164.8765 C.ar    1  UNL1        0.0727
      4 N         141.8401  140.6828  165.2669 N.ar    1  UNL1       -0.3135
      5 C         141.7439  141.0061  166.7285 C.ar    1  UNL1        0.1444
      6 N         142.6690  141.7334  167.6586 N.ar    1  UNL1       -0.2237
      7 C         142.2980  141.9066  169.1017 C.ar    1  UNL1        0.1366
      8 C         141.0019  141.3525  169.6146 C.ar    1  UNL1        0.0352
      9 C         140.0768  140.6252  168.6844 C.ar    1  UNL1        0.0619
     10 CL        138.7807  140.0711  169.1973 Cl      1  UNL1       -0.0821
     11 C         140.4478  140.4520  167.2414 C.ar    1  UNL1        0.0422
     12 C         143.2232  142.6339  170.0319 C.2     1  UNL1        0.2606
     13 N         142.7258  143.1082  171.3651 N.am    1  UNL1       -0.3241
     14 O         144.6457  142.8868  169.6288 O.2     1  UNL1       -0.2687
     15 H         141.7921  142.9422  171.6296 H       1  UNL1        0.1453
     16 H         143.3329  143.5856  171.9756 H       1  UNL1        0.1453
     17 C         142.9740  141.0492  164.3558 C.3     1  UNL1        0.0896
     18 C         144.0776  140.0663  164.0992 C.3     1  UNL1        0.0246
     19 C         143.0041  142.3985  163.7011 C.3     1  UNL1        0.0562
     20 C         142.2161  142.6420  162.4482 C.3     1  UNL1        0.0217
     21 C         142.2463  143.9913  161.7936 C.3     1  UNL1        0.0688
     22 N         143.0645  145.0970  162.3919 N.3     1  UNL1       -0.2952
     23 C         143.8525  144.8535  163.6448 C.3     1  UNL1        0.1043
     24 C         143.8223  143.5043  164.2993 C.3     1  UNL1        0.1784
     25 F         144.6103  143.2607  165.5523 F       1  UNL1       -0.2357
     26 H         142.4220  145.8634  162.5924 H       1  UNL1        0.1233
@<TRIPOS>BOND
     1     1     2    1
     2     2     3   ar
     3     3     4   ar
     4     4    17    1
     5    17    18    1
     6    17    19    1
     7    19    20    1
     8    20    21    1
     9    21    22    1
    10    22    23    1
    11    23    24    1
    12    24    25    1
    13     4     5   ar
    14     5     6   ar
    15     6     7   ar
    16     7    12    1
    17    12    13   am
    18    12    14    2
    19     7     8   ar
    20     8     9   ar
    21     9    10    1
    22     9    11   ar
    23    11     2   ar
    24    24    19    1
    25    11     5   ar
    26    22    26    1
    27    13    15    1
    28    13    16    1
@<TRIPOS>MOLECULE
*****
 26 28 0 0 0
SMALL
GASTEIGER

@<TRIPOS>ATOM
      1 C         138.8322  144.7668  164.9664 C.3     1  UNL1        0.0327
      2 C         139.9701  143.8287  165.2408 C.ar    1  UNL1       -0.0009
      3 C         140.1037  142.9301  166.4343 C.ar    1  UNL1        0.0727
      4 N         141.3903  142.1706  166.3009 N.ar    1  UNL1       -0.3135
      5 C         142.0519  142.5999  165.0250 C.ar    1  UNL1        0.1444
      6 N         143.3401  142.1900  164.3751 N.ar    1  UNL1       -0.2237
      7 C         143.7506  142.8049  163.0700 C.ar    1  UNL1        0.1366
      8 C         142.8728  143.8296  162.4147 C.ar    1  UNL1        0.0352
      9 C         141.5846  144.2395  163.0646 C.ar    1  UNL1        0.0619
     10 CL        140.7068  145.2643  162.4094 Cl      1  UNL1       -0.0821
     11 C         141.1741  143.6246  164.3697 C.ar    1  UNL1        0.0422
     12 C         145.0389  142.3950  162.4200 C.2     1  UNL1        0.2606
     13 N         145.2913  142.7280  160.9794 N.am    1  UNL1       -0.3241
     14 O         146.0747  141.6521  163.2107 O.2     1  UNL1       -0.2687
     15 H         144.6114  143.2156  160.4604 H       1  UNL1        0.1453
     16 H         146.1368  142.4590  160.5528 H       1  UNL1        0.1453
     17 C         141.9221  141.1594  167.2729 C.3     1  UNL1        0.0896
     18 C         142.3874  139.8204  166.7827 C.3     1  UNL1        0.0246
     19 C         141.9885  141.4873  168.7352 C.3     1  UNL1        0.0562
     20 C         142.9301  142.5478  169.2240 C.3     1  UNL1        0.0217
     21 C         142.9965  142.8756  170.6862 C.3     1  UNL1        0.0688
     22 N         142.1214  142.1430  171.6596 N.3     1  UNL1       -0.2952
     23 C         141.1798  141.0826  171.1708 C.3     1  UNL1        0.1043
     24 C         141.1134  140.7548  169.7086 C.3     1  UNL1        0.1784
     25 F         140.1718  139.6943  169.2197 F       1  UNL1       -0.2357
     26 H         141.5532  142.8463  172.1318 H       1  UNL1        0.1233
@<TRIPOS>BOND
     1     1     2    1
     2     2     3   ar
     3     3     4   ar
     4     4    17    1
     5    17    18    1
     6    17    19    1
     7    19    20    1
     8    20    21    1
     9    21    22    1
    10    22    23    1
    11    23    24    1
    12    24    25    1
    13     4     5   ar
    14     5     6   ar
    15     6     7   ar
    16     7    12    1
    17    12    13   am
    18    12    14    2
    19     7     8   ar
    20     8     9   ar
    21     9    10    1
    22     9    11   ar
    23    11     2   ar
    24    24    19    1
    25    11     5   ar
    26    22    26    1
    27    13    15    1
    28    13    16    1
@<TRIPOS>MOLECULE
*****
 26 28 0 0 0
SMALL
GASTEIGER

@<TRIPOS>ATOM
      1 C         138.5901  138.4855  164.9239 C.3     1  UNL1        0.0327
      2 C         139.3578  139.7278  165.2662 C.ar    1  UNL1       -0.0009
      3 C         140.2665  139.9057  166.4463 C.ar    1  UNL1        0.0727
      4 N         140.8219  141.2982  166.3978 N.ar    1  UNL1       -0.3135
      5 C         140.2566  141.9810  165.1878 C.ar    1  UNL1        0.1444
      6 N         140.4488  143.3610  164.6325 N.ar    1  UNL1       -0.2237
      7 C         139.7362  143.7705  163.3777 C.ar    1  UNL1        0.1366
      8 C         138.8313  142.8000  162.6783 C.ar    1  UNL1        0.0352
      9 C         138.6391  141.4199  163.2336 C.ar    1  UNL1        0.0619
     10 CL        137.7342  140.4493  162.5342 Cl      1  UNL1       -0.0821
     11 C         139.3517  141.0104  164.4884 C.ar    1  UNL1        0.0422
     12 C         139.9285  145.1507  162.8224 C.2     1  UNL1        0.2606
     13 N         141.1698  145.9255  163.1519 N.am    1  UNL1       -0.3241
     14 O         138.8794  145.7559  161.9375 O.2     1  UNL1       -0.2687
     15 H         141.8584  145.5283  163.7327 H       1  UNL1        0.1453
     16 H         141.2960  146.8313  162.7875 H       1  UNL1        0.1453
     17 C         141.7754  141.9020  167.3860 C.3     1  UNL1        0.0896
     18 C         143.1169  142.3937  166.9297 C.3     1  UNL1        0.0246
     19 C         141.3872  142.0140  168.8306 C.3     1  UNL1        0.0562
     20 C         140.3036  142.9652  169.2445 C.3     1  UNL1        0.0217
     21 C         139.9155  143.0772  170.6890 C.3     1  UNL1        0.0688
     22 N         140.6109  142.2381  171.7197 N.3     1  UNL1       -0.2952
     23 C         141.6944  141.2869  171.3059 C.3     1  UNL1        0.1043
     24 C         142.0825  141.1749  169.8613 C.3     1  UNL1        0.1784
     25 F         143.1661  140.2238  169.4474 F       1  UNL1       -0.2357
     26 H         139.8910  141.6818  172.1809 H       1  UNL1        0.1233
@<TRIPOS>BOND
     1     1     2    1
     2     2     3   ar
     3     3     4   ar
     4     4    17    1
     5    17    18    1
     6    17    19    1
     7    19    20    1
     8    20    21    1
     9    21    22    1
    10    22    23    1
    11    23    24    1
    12    24    25    1
    13     4     5   ar
    14     5     6   ar
    15     6     7   ar
    16     7    12    1
    17    12    13   am
    18    12    14    2
    19     7     8   ar
    20     8     9   ar
    21     9    10    1
    22     9    11   ar
    23    11     2   ar
    24    24    19    1
    25    11     5   ar
    26    22    26    1
    27    13    15    1
    28    13    16    1
@<TRIPOS>MOLECULE
*****
 26 28 0 0 0
SMALL
GASTEIGER

@<TRIPOS>ATOM
      1 C         144.8495  143.2421  165.7434 C.3     1  UNL1        0.0327
      2 C         143.4472  142.7826  165.4742 C.ar    1  UNL1       -0.0009
      3 C         142.8251  141.5115  165.9716 C.ar    1  UNL1        0.0727
      4 N         141.4142  141.4570  165.4652 N.ar    1  UNL1       -0.3135
      5 C         141.1643  142.6943  164.6549 C.ar    1  UNL1        0.1444
      6 N         139.9550  143.1807  163.9127 N.ar    1  UNL1       -0.2237
      7 C         140.0022  144.4865  163.1760 C.ar    1  UNL1        0.1366
      8 C         141.2586  145.3058  163.1816 C.ar    1  UNL1        0.0352
      9 C         142.4679  144.8194  163.9238 C.ar    1  UNL1        0.0619
     10 CL        143.7244  145.6387  163.9294 Cl      1  UNL1       -0.0821
     11 C         142.4208  143.5136  164.6604 C.ar    1  UNL1        0.0422
     12 C         138.7928  144.9730  162.4338 C.2     1  UNL1        0.2606
     13 N         137.4715  144.2885  162.6223 N.am    1  UNL1       -0.3241
     14 O         138.9049  146.1440  161.5031 O.2     1  UNL1       -0.2687
     15 H         137.3980  143.5200  163.2331 H       1  UNL1        0.1453
     16 H         136.6778  144.6078  162.1351 H       1  UNL1        0.1453
     17 C         140.4266  140.3580  165.7237 C.3     1  UNL1        0.0896
     18 C         139.7377  140.2660  167.0529 C.3     1  UNL1        0.0246
     19 C         140.1279  139.3508  164.6529 C.3     1  UNL1        0.0562
     20 C         141.1429  138.3027  164.3048 C.3     1  UNL1        0.0217
     21 C         140.8442  137.2957  163.2341 C.3     1  UNL1        0.0688
     22 N         139.5304  137.3367  162.5113 N.3     1  UNL1       -0.2952
     23 C         138.5153  138.3848  162.8594 C.3     1  UNL1        0.1043
     24 C         138.8141  139.3919  163.9301 C.3     1  UNL1        0.1784
     25 F         137.7991  140.4400  164.2782 F       1  UNL1       -0.2357
     26 H         139.0833  136.4324  162.6617 H       1  UNL1        0.1233
@<TRIPOS>BOND
     1     1     2    1
     2     2     3   ar
     3     3     4   ar
     4     4    17    1
     5    17    18    1
     6    17    19    1
     7    19    20    1
     8    20    21    1
     9    21    22    1
    10    22    23    1
    11    23    24    1
    12    24    25    1
    13     4     5   ar
    14     5     6   ar
    15     6     7   ar
    16     7    12    1
    17    12    13   am
    18    12    14    2
    19     7     8   ar
    20     8     9   ar
    21     9    10    1
    22     9    11   ar
    23    11     2   ar
    24    24    19    1
    25    11     5   ar
    26    22    26    1
    27    13    15    1
    28    13    16    1
@<TRIPOS>MOLECULE
*****
 26 28 0 0 0
SMALL
GASTEIGER

@<TRIPOS>ATOM
      1 C         143.6303  138.1891  166.2948 C.3     1  UNL1        0.0327
      2 C         142.9358  139.5186  166.3049 C.ar    1  UNL1       -0.0009
      3 C         142.6829  140.3903  165.1107 C.ar    1  UNL1        0.0727
      4 N         141.9631  141.6203  165.5787 N.ar    1  UNL1       -0.3135
      5 C         141.7711  141.5088  167.0622 C.ar    1  UNL1        0.1444
      6 N         141.1266  142.4221  168.0623 N.ar    1  UNL1       -0.2237
      7 C         141.0832  142.0366  169.5112 C.ar    1  UNL1        0.1366
      8 C         141.6843  140.7377  169.9601 C.ar    1  UNL1        0.0352
      9 C         142.3289  139.8243  168.9599 C.ar    1  UNL1        0.0619
     10 CL        142.9301  138.5254  169.4088 Cl      1  UNL1       -0.0821
     11 C         142.3723  140.2098  167.5110 C.ar    1  UNL1        0.0422
     12 C         140.4386  142.9500  170.5114 C.2     1  UNL1        0.2606
     13 N         140.0566  144.3455  170.1157 N.am    1  UNL1       -0.3241
     14 O         140.1760  142.4678  171.9073 O.2     1  UNL1       -0.2687
     15 H         140.2290  144.6619  169.1995 H       1  UNL1        0.1453
     16 H         139.6336  144.9450  170.7721 H       1  UNL1        0.1453
     17 C         141.5141  142.7615  164.7150 C.3     1  UNL1        0.0896
     18 C         142.4370  143.9154  164.4572 C.3     1  UNL1        0.0246
     19 C         140.1420  142.7487  164.1088 C.3     1  UNL1        0.0562
     20 C         139.8837  141.9688  162.8538 C.3     1  UNL1        0.0217
     21 C         138.5117  141.9560  162.2478 C.3     1  UNL1        0.0688
     22 N         137.3979  142.7231  162.8967 N.3     1  UNL1       -0.2952
     23 C         137.6562  143.5030  164.1518 C.3     1  UNL1        0.1043
     24 C         139.0282  143.5157  164.7578 C.3     1  UNL1        0.1784
     25 F         139.2866  144.2956  166.0128 F       1  UNL1       -0.2357
     26 H         136.6641  142.0490  163.1147 H       1  UNL1        0.1233
@<TRIPOS>BOND
     1     1     2    1
     2     2     3   ar
     3     3     4   ar
     4     4    17    1
     5    17    18    1
     6    17    19    1
     7    19    20    1
     8    20    21    1
     9    21    22    1
    10    22    23    1
    11    23    24    1
    12    24    25    1
    13     4     5   ar
    14     5     6   ar
    15     6     7   ar
    16     7    12    1
    17    12    13   am
    18    12    14    2
    19     7     8   ar
    20     8     9   ar
    21     9    10    1
    22     9    11   ar
    23    11     2   ar
    24    24    19    1
    25    11     5   ar
    26    22    26    1
    27    13    15    1
    28    13    16    1
@<TRIPOS>MOLECULE
*****
 26 28 0 0 0
SMALL
GASTEIGER

@<TRIPOS>ATOM
      1 C         144.0717  143.1362  165.8282 C.3     1  UNL1        0.0327
      2 C         142.7111  142.5112  165.9176 C.ar    1  UNL1       -0.0009
      3 C         141.7636  142.2945  164.7751 C.ar    1  UNL1        0.0727
      4 N         140.5260  141.6426  165.3166 N.ar    1  UNL1       -0.3135
      5 C         140.7085  141.4564  166.7938 C.ar    1  UNL1        0.1444
      6 N         139.8196  140.8673  167.8486 N.ar    1  UNL1       -0.2237
      7 C         140.2810  140.8152  169.2748 C.ar    1  UNL1        0.1366
      8 C         141.6315  141.3520  169.6463 C.ar    1  UNL1        0.0352
      9 C         142.5205  141.9411  168.5914 C.ar    1  UNL1        0.0619
     10 CL        143.8710  142.4779  168.9629 Cl      1  UNL1       -0.0821
     11 C         142.0590  141.9932  167.1652 C.ar    1  UNL1        0.0422
     12 C         139.3920  140.2261  170.3297 C.2     1  UNL1        0.2606
     13 N         139.9676  139.3132  171.3715 N.am    1  UNL1       -0.3241
     14 O         137.9275  140.5500  170.3429 O.2     1  UNL1       -0.2687
     15 H         140.9289  139.1006  171.3628 H       1  UNL1        0.1453
     16 H         139.3842  138.9265  172.0638 H       1  UNL1        0.1453
     17 C         139.3179  141.2464  164.5207 C.3     1  UNL1        0.0896
     18 C         138.0599  142.0581  164.6125 C.3     1  UNL1        0.0246
     19 C         139.3677  140.0383  163.6328 C.3     1  UNL1        0.0562
     20 C         139.9977  140.1312  162.2747 C.3     1  UNL1        0.0217
     21 C         140.0475  138.9231  161.3869 C.3     1  UNL1        0.0688
     22 N         139.4674  137.6223  161.8572 N.3     1  UNL1       -0.2952
     23 C         138.8375  137.5294  163.2154 C.3     1  UNL1        0.1043
     24 C         138.7877  138.7374  164.1031 C.3     1  UNL1        0.1784
     25 F         138.1577  138.6446  165.4613 F       1  UNL1       -0.2357
     26 H         140.2235  136.9379  161.8359 H       1  UNL1        0.1233
@<TRIPOS>BOND
     1     1     2    1
     2     2     3   ar
     3     3     4   ar
     4     4    17    1
     5    17    18    1
     6    17    19    1
     7    19    20    1
     8    20    21    1
     9    21    22    1
    10    22    23    1
    11    23    24    1
    12    24    25    1
    13     4     5   ar
    14     5     6   ar
    15     6     7   ar
    16     7    12    1
    17    12    13   am
    18    12    14    2
    19     7     8   ar
    20     8     9   ar
    21     9    10    1
    22     9    11   ar
    23    11     2   ar
    24    24    19    1
    25    11     5   ar
    26    22    26    1
    27    13    15    1
    28    13    16    1
@<TRIPOS>MOLECULE
*****
 26 28 0 0 0
SMALL
GASTEIGER

@<TRIPOS>ATOM
      1 C         140.5602  142.5338  167.2659 C.3     1  UNL1        0.0327
      2 C         141.3312  142.5739  165.9798 C.ar    1  UNL1       -0.0009
      3 C         142.5839  141.8060  165.6785 C.ar    1  UNL1        0.0727
      4 N         143.0117  142.1465  164.2817 N.ar    1  UNL1       -0.3135
      5 C         142.0232  143.1248  163.7197 C.ar    1  UNL1        0.1444
      6 N         141.9347  143.8093  162.3879 N.ar    1  UNL1       -0.2237
      7 C         140.8076  144.7579  162.1057 C.ar    1  UNL1        0.1366
      8 C         139.7690  145.0220  163.1552 C.ar    1  UNL1        0.0352
      9 C         139.8575  144.3376  164.4870 C.ar    1  UNL1        0.0619
     10 CL        138.8188  144.6018  165.5365 Cl      1  UNL1       -0.0821
     11 C         140.9846  143.3890  164.7692 C.ar    1  UNL1        0.0422
     12 C         140.7191  145.4424  160.7738 C.2     1  UNL1        0.2606
     13 N         141.8609  145.3496  159.8055 N.am    1  UNL1       -0.3241
     14 O         139.4888  146.2197  160.4104 O.2     1  UNL1       -0.2687
     15 H         142.6684  144.8394  160.0441 H       1  UNL1        0.1453
     16 H         141.8029  145.7988  158.9314 H       1  UNL1        0.1453
     17 C         144.2163  141.6039  163.5715 C.3     1  UNL1        0.0896
     18 C         145.5882  142.0722  163.9567 C.3     1  UNL1        0.0246
     19 C         144.0490  140.5929  162.4760 C.3     1  UNL1        0.0562
     20 C         143.9778  141.0412  161.0463 C.3     1  UNL1        0.0217
     21 C         143.8105  140.0302  159.9509 C.3     1  UNL1        0.0688
     22 N         143.7145  138.5711  160.2851 N.3     1  UNL1       -0.2952
     23 C         143.7857  138.1229  161.7148 C.3     1  UNL1        0.1043
     24 C         143.9530  139.1338  162.8102 C.3     1  UNL1        0.1784
     25 F         144.0243  138.6856  164.2399 F       1  UNL1       -0.2357
     26 H         144.4764  138.1054  159.7922 H       1  UNL1        0.1233
@<TRIPOS>BOND
     1     1     2    1
     2     2     3   ar
     3     3     4   ar
     4     4    17    1
     5    17    18    1
     6    17    19    1
     7    19    20    1
     8    20    21    1
     9    21    22    1
    10    22    23    1
    11    23    24    1
    12    24    25    1
    13     4     5   ar
    14     5     6   ar
    15     6     7   ar
    16     7    12    1
    17    12    13   am
    18    12    14    2
    19     7     8   ar
    20     8     9   ar
    21     9    10    1
    22     9    11   ar
    23    11     2   ar
    24    24    19    1
    25    11     5   ar
    26    22    26    1
    27    13    15    1
    28    13    16    1
