@<TRIPOS>MOLECULE
*****
 33 37 0 0 0
SMALL
GASTEIGER

@<TRIPOS>ATOM
      1 N         142.6108  143.5058  162.7191 N.3     1  UNL1       -0.2726
      2 C         142.4542  144.9973  162.7494 C.3     1  UNL1        0.0721
      3 C         141.2706  145.3216  163.6119 C.3     1  UNL1        0.0190
      4 C         140.6957  144.0306  164.1147 C.3     1  UNL1        0.0201
      5 C         139.5837  144.6520  164.9067 C.3     1  UNL1        0.0061
      6 C         139.7403  143.1605  164.8764 C.3     1  UNL1        0.0237
      7 C         141.5240  142.9084  163.5629 C.3     1  UNL1        0.0724
      8 C         139.2792  141.7971  165.2987 C.ar    1  UNL1       -0.0225
      9 C         138.4534  140.9622  164.3654 C.ar    1  UNL1       -0.0043
     10 C         137.9922  139.5988  164.7877 C.ar    1  UNL1        0.0035
     11 C         138.3569  139.0702  166.1433 C.ar    1  UNL1        0.0714
     12 C         139.1826  139.9051  167.0766 C.ar    1  UNL1        0.0035
     13 C         139.6438  141.2686  166.6543 C.ar    1  UNL1       -0.0043
     14 C         137.8957  137.7068  166.5656 C.3     1  UNL1        0.4186
     15 F         137.4346  136.3433  166.9879 F       1  UNL1       -0.1659
     16 F         137.0234  138.3273  167.6163 F       1  UNL1       -0.1659
     17 F         138.7680  137.0863  165.5149 F       1  UNL1       -0.1659
     18 C         143.6685  142.7452  161.9756 C.3     1  UNL1        0.0730
     19 C         143.2831  141.6040  161.0817 C.3     1  UNL1        0.0294
     20 C         144.2225  140.4501  160.8912 C.3     1  UNL1        0.0666
     21 S         143.9410  139.1360  161.5573 S.3     1  UNL1       -0.0756
     22 C         142.7557  139.4275  165.2419 C.ar    1  UNL1        0.2043
     23 N         141.6125  138.6747  164.6283 N.ar    1  UNL1       -0.1249
     24 N         141.9174  138.4739  163.1734 N.ar    1  UNL1       -0.1220
     25 C         143.2490  139.1026  162.8877 C.ar    1  UNL1        0.1933
     26 N         143.7672  139.6919  164.1661 N.ar    1  UNL1       -0.2859
     27 C         145.0683  140.4182  164.3385 C.3     1  UNL1        0.1341
     28 C         143.1437  142.3855  169.5985 C.3     1  UNL1        0.0557
     29 C         143.0461  141.2026  168.6813 C.ar    1  UNL1        0.1012
     30 C         142.9431  141.2527  167.1857 C.ar    1  UNL1        0.0613
     31 C         142.8678  139.8429  166.6788 C.ar    1  UNL1        0.2122
     32 O         142.9242  138.9216  167.8611 O.2     1  UNL1       -0.3506
     33 N         143.0344  139.7619  169.0987 N.ar    1  UNL1       -0.0812
@<TRIPOS>BOND
     1    28    29    1
     2    29    30   ar
     3    30    31   ar
     4    31    22    1
     5    22    23   ar
     6    23    24   ar
     7    24    25   ar
     8    25    21    1
     9    21    20    1
    10    20    19    1
    11    19    18    1
    12    18     1    1
    13     1     2    1
    14     2     3    1
    15     4     3    1
    16     4     5    1
    17     5     6    1
    18     6     8    1
    19     8     9   ar
    20     9    10   ar
    21    10    11   ar
    22    11    14    1
    23    14    15    1
    24    14    16    1
    25    14    17    1
    26    11    12   ar
    27    12    13   ar
    28     4     7    1
    29    25    26   ar
    30    26    27    1
    31    31    32   ar
    32    32    33   ar
    33    33    29   ar
    34    26    22   ar
    35     7     1    1
    36     6     4    1
    37    13     8   ar
@<TRIPOS>MOLECULE
*****
 33 37 0 0 0
SMALL
GASTEIGER

@<TRIPOS>ATOM
      1 N         142.4116  138.3119  162.9263 N.3     1  UNL1       -0.2726
      2 C         141.2546  137.5134  162.4032 C.3     1  UNL1        0.0721
      3 C         140.1181  137.6549  163.3719 C.3     1  UNL1        0.0190
      4 C         140.5727  138.5409  164.4937 C.3     1  UNL1        0.0201
      5 C         139.2849  138.4951  165.2614 C.3     1  UNL1        0.0061
      6 C         140.4420  139.2936  165.7845 C.3     1  UNL1        0.0237
      7 C         141.9902  138.9469  164.2183 C.3     1  UNL1        0.0724
      8 C         141.0345  140.1892  166.8318 C.ar    1  UNL1       -0.0225
      9 C         142.1326  139.6818  167.7187 C.ar    1  UNL1       -0.0043
     10 C         142.7251  140.5774  168.7660 C.ar    1  UNL1        0.0035
     11 C         142.2195  141.9805  168.9263 C.ar    1  UNL1        0.0714
     12 C         141.1214  142.4879  168.0394 C.ar    1  UNL1        0.0035
     13 C         140.5289  141.5923  166.9921 C.ar    1  UNL1       -0.0043
     14 C         142.8120  142.8761  169.9736 C.3     1  UNL1        0.4186
     15 F         143.4046  143.7717  171.0209 F       1  UNL1       -0.1659
     16 F         144.0646  142.0508  169.9706 F       1  UNL1       -0.1659
     17 F         141.5595  143.7013  169.9765 F       1  UNL1       -0.1659
     18 C         143.7543  138.4510  162.2723 C.3     1  UNL1        0.0730
     19 C         144.0363  139.6237  161.3804 C.3     1  UNL1        0.0294
     20 C         143.7034  139.5521  159.9195 C.3     1  UNL1        0.0666
     21 S         143.3124  140.7957  159.1776 S.3     1  UNL1       -0.0756
     22 C         141.3564  143.4000  161.2889 C.ar    1  UNL1        0.2043
     23 N         142.5540  144.2029  160.8750 N.ar    1  UNL1       -0.1249
     24 N         143.4324  143.3251  160.0338 N.ar    1  UNL1       -0.1220
     25 C         142.7778  141.9796  159.9277 C.ar    1  UNL1        0.1933
     26 N         141.4947  142.0259  160.7033 N.ar    1  UNL1       -0.2859
     27 C         140.5210  140.8965  160.8651 C.3     1  UNL1        0.1341
     28 C         138.4976  144.9194  165.4602 C.3     1  UNL1        0.0557
     29 C         138.9060  144.5843  164.0563 C.ar    1  UNL1        0.1012
     30 C         140.2554  144.0917  163.6243 C.ar    1  UNL1        0.0613
     31 C         140.2200  143.8859  162.1389 C.ar    1  UNL1        0.2122
     32 O         138.8488  144.2514  161.6528 O.2     1  UNL1       -0.3506
     33 N         138.0368  144.6830  162.8378 N.ar    1  UNL1       -0.0812
@<TRIPOS>BOND
     1    28    29    1
     2    29    30   ar
     3    30    31   ar
     4    31    22    1
     5    22    23   ar
     6    23    24   ar
     7    24    25   ar
     8    25    21    1
     9    21    20    1
    10    20    19    1
    11    19    18    1
    12    18     1    1
    13     1     2    1
    14     2     3    1
    15     4     3    1
    16     4     5    1
    17     5     6    1
    18     6     8    1
    19     8     9   ar
    20     9    10   ar
    21    10    11   ar
    22    11    14    1
    23    14    15    1
    24    14    16    1
    25    14    17    1
    26    11    12   ar
    27    12    13   ar
    28     4     7    1
    29    25    26   ar
    30    26    27    1
    31    31    32   ar
    32    32    33   ar
    33    33    29   ar
    34    26    22   ar
    35     7     1    1
    36     6     4    1
    37    13     8   ar
@<TRIPOS>MOLECULE
*****
 33 37 0 0 0
SMALL
GASTEIGER

@<TRIPOS>ATOM
      1 N         139.9134  138.3498  162.8783 N.3     1  UNL1       -0.2726
      2 C         141.0816  137.7151  162.1838 C.3     1  UNL1        0.0721
      3 C         142.3109  137.9918  162.9977 C.3     1  UNL1        0.0190
      4 C         141.9023  138.7975  164.1952 C.3     1  UNL1        0.0201
      5 C         143.2771  138.9107  164.7845 C.3     1  UNL1        0.0061
      6 C         142.1088  139.5454  165.4790 C.3     1  UNL1        0.0237
      7 C         140.4206  139.0188  164.1214 C.3     1  UNL1        0.0724
      8 C         141.5535  140.3436  166.6211 C.ar    1  UNL1       -0.0225
      9 C         142.1577  141.6709  166.9722 C.ar    1  UNL1       -0.0043
     10 C         141.6024  142.4691  168.1143 C.ar    1  UNL1        0.0035
     11 C         140.4429  141.9400  168.9053 C.ar    1  UNL1        0.0714
     12 C         139.8388  140.6127  168.5542 C.ar    1  UNL1        0.0035
     13 C         140.3941  139.8145  167.4121 C.ar    1  UNL1       -0.0043
     14 C         139.8877  142.7382  170.0475 C.3     1  UNL1        0.4186
     15 F         139.3324  143.5365  171.1897 F       1  UNL1       -0.1659
     16 F         138.8576  141.6751  170.2896 F       1  UNL1       -0.1659
     17 F         140.9178  143.8013  169.8053 F       1  UNL1       -0.1659
     18 C         138.4881  138.3207  162.4116 C.3     1  UNL1        0.0730
     19 C         137.8553  139.5621  161.8560 C.3     1  UNL1        0.0294
     20 C         137.6805  139.7161  160.3742 C.3     1  UNL1        0.0666
     21 S         138.1984  140.9415  159.6813 S.3     1  UNL1       -0.0756
     22 C         140.5360  143.3096  161.6798 C.ar    1  UNL1        0.2043
     23 N         139.2490  144.0796  161.7096 N.ar    1  UNL1       -0.1249
     24 N         138.2167  143.2862  160.9646 N.ar    1  UNL1       -0.1220
     25 C         138.8657  142.0259  160.4743 C.ar    1  UNL1        0.1933
     26 N         140.2990  142.0403  160.9163 N.ar    1  UNL1       -0.2859
     27 C         141.3168  140.9728  160.6428 C.3     1  UNL1        0.1341
     28 C         144.4629  143.9639  165.1485 C.3     1  UNL1        0.0557
     29 C         143.6372  144.0350  163.8982 C.ar    1  UNL1        0.1012
     30 C         142.2872  143.4131  163.6966 C.ar    1  UNL1        0.0613
     31 C         141.8322  143.7343  162.3038 C.ar    1  UNL1        0.2122
     32 O         142.9011  144.5547  161.6446 O.2     1  UNL1       -0.3506
     33 N         144.0166  144.7405  162.6300 N.ar    1  UNL1       -0.0812
@<TRIPOS>BOND
     1    28    29    1
     2    29    30   ar
     3    30    31   ar
     4    31    22    1
     5    22    23   ar
     6    23    24   ar
     7    24    25   ar
     8    25    21    1
     9    21    20    1
    10    20    19    1
    11    19    18    1
    12    18     1    1
    13     1     2    1
    14     2     3    1
    15     4     3    1
    16     4     5    1
    17     5     6    1
    18     6     8    1
    19     8     9   ar
    20     9    10   ar
    21    10    11   ar
    22    11    14    1
    23    14    15    1
    24    14    16    1
    25    14    17    1
    26    11    12   ar
    27    12    13   ar
    28     4     7    1
    29    25    26   ar
    30    26    27    1
    31    31    32   ar
    32    32    33   ar
    33    33    29   ar
    34    26    22   ar
    35     7     1    1
    36     6     4    1
    37    13     8   ar
@<TRIPOS>MOLECULE
*****
 33 37 0 0 0
SMALL
GASTEIGER

@<TRIPOS>ATOM
      1 N         137.9449  140.4533  163.0879 N.3     1  UNL1       -0.2726
      2 C         137.9394  139.2118  162.2462 C.3     1  UNL1        0.0721
      3 C         138.8076  138.1910  162.9202 C.3     1  UNL1        0.0190
      4 C         139.3496  138.8017  164.1785 C.3     1  UNL1        0.0201
      5 C         140.1389  137.6008  164.6083 C.3     1  UNL1        0.0061
      6 C         140.1444  138.8423  165.4500 C.3     1  UNL1        0.0237
      7 C         138.8165  140.1999  164.2821 C.3     1  UNL1        0.0724
      8 C         140.6065  139.5826  166.6700 C.ar    1  UNL1       -0.0225
      9 C         139.6283  139.9263  167.7540 C.ar    1  UNL1       -0.0043
     10 C         140.0903  140.6666  168.9741 C.ar    1  UNL1        0.0035
     11 C         141.5305  141.0631  169.1101 C.ar    1  UNL1        0.0714
     12 C         142.5087  140.7194  168.0261 C.ar    1  UNL1        0.0035
     13 C         142.0467  139.9791  166.8061 C.ar    1  UNL1       -0.0043
     14 C         141.9925  141.8034  170.3301 C.3     1  UNL1        0.4186
     15 F         142.4546  142.5437  171.5503 F       1  UNL1       -0.1659
     16 F         142.7404  142.7700  169.4604 F       1  UNL1       -0.1659
     17 F         141.2447  140.8368  171.1998 F       1  UNL1       -0.1659
     18 C         137.2082  141.7251  162.7880 C.3     1  UNL1        0.0730
     19 C         137.9359  142.8884  162.1822 C.3     1  UNL1        0.0294
     20 C         137.9232  144.2216  162.8696 C.3     1  UNL1        0.0666
     21 S         139.1186  145.1233  162.7796 S.3     1  UNL1       -0.0756
     22 C         142.5456  143.3336  162.4357 C.ar    1  UNL1        0.2043
     23 N         142.4680  144.0650  161.1284 N.ar    1  UNL1       -0.1249
     24 N         141.1748  144.8244  161.0981 N.ar    1  UNL1       -0.1220
     25 C         140.4531  144.5624  162.3867 C.ar    1  UNL1        0.1933
     26 N         141.3003  143.6410  163.2134 N.ar    1  UNL1       -0.2859
     27 C         140.9616  143.1188  164.5782 C.3     1  UNL1        0.1341
     28 C         145.2340  139.2960  164.5215 C.3     1  UNL1        0.0557
     29 C         144.9066  140.5941  163.8450 C.ar    1  UNL1        0.1012
     30 C         143.5299  141.1278  163.5806 C.ar    1  UNL1        0.0613
     31 C         143.6709  142.4500  162.8863 C.ar    1  UNL1        0.2122
     32 O         145.1346  142.7334  162.7216 O.2     1  UNL1       -0.3506
     33 N         145.8983  141.5864  163.3141 N.ar    1  UNL1       -0.0812
@<TRIPOS>BOND
     1    28    29    1
     2    29    30   ar
     3    30    31   ar
     4    31    22    1
     5    22    23   ar
     6    23    24   ar
     7    24    25   ar
     8    25    21    1
     9    21    20    1
    10    20    19    1
    11    19    18    1
    12    18     1    1
    13     1     2    1
    14     2     3    1
    15     4     3    1
    16     4     5    1
    17     5     6    1
    18     6     8    1
    19     8     9   ar
    20     9    10   ar
    21    10    11   ar
    22    11    14    1
    23    14    15    1
    24    14    16    1
    25    14    17    1
    26    11    12   ar
    27    12    13   ar
    28     4     7    1
    29    25    26   ar
    30    26    27    1
    31    31    32   ar
    32    32    33   ar
    33    33    29   ar
    34    26    22   ar
    35     7     1    1
    36     6     4    1
    37    13     8   ar
@<TRIPOS>MOLECULE
*****
 33 37 0 0 0
SMALL
GASTEIGER

@<TRIPOS>ATOM
      1 N         142.4584  138.5595  163.6873 N.3     1  UNL1       -0.2726
      2 C         143.6621  138.7416  162.8110 C.3     1  UNL1        0.0721
      3 C         144.4001  139.9587  163.2845 C.3     1  UNL1        0.0190
      4 C         143.6525  140.5287  164.4533 C.3     1  UNL1        0.0201
      5 C         144.5877  141.6768  164.6928 C.3     1  UNL1        0.0061
      6 C         143.3840  141.4947  165.5691 C.3     1  UNL1        0.0237
      7 C         142.4524  139.6640  164.7023 C.3     1  UNL1        0.0724
      8 C         142.5340  141.9472  166.7191 C.ar    1  UNL1       -0.0225
      9 C         141.0785  142.2406  166.5061 C.ar    1  UNL1       -0.0043
     10 C         140.2285  142.6931  167.6562 C.ar    1  UNL1        0.0035
     11 C         140.8340  142.8522  169.0193 C.ar    1  UNL1        0.0714
     12 C         142.2895  142.5587  169.2323 C.ar    1  UNL1        0.0035
     13 C         143.1395  142.1062  168.0822 C.ar    1  UNL1       -0.0043
     14 C         139.9840  143.3047  170.1694 C.3     1  UNL1        0.4186
     15 F         139.1340  143.7572  171.3195 F       1  UNL1       -0.1659
     16 F         139.3854  141.9328  170.2667 F       1  UNL1       -0.1659
     17 F         140.5826  144.6766  170.0720 F       1  UNL1       -0.1659
     18 C         141.4394  137.4651  163.5694 C.3     1  UNL1        0.0730
     19 C         140.4264  137.4995  162.4637 C.3     1  UNL1        0.0294
     20 C         138.9728  137.6861  162.7836 C.3     1  UNL1        0.0666
     21 S         138.2003  138.7997  162.1410 S.3     1  UNL1       -0.0756
     22 C         139.2773  142.4170  163.0471 C.ar    1  UNL1        0.2043
     23 N         137.9489  142.3284  163.7381 N.ar    1  UNL1       -0.1249
     24 N         137.3838  140.9626  163.4828 N.ar    1  UNL1       -0.1220
     25 C         138.3629  140.2071  162.6340 C.ar    1  UNL1        0.1933
     26 N         139.5332  141.1059  162.3647 N.ar    1  UNL1       -0.2859
     27 C         140.7463  140.7553  161.5551 C.3     1  UNL1        0.1341
     28 C         143.5434  145.4781  163.6044 C.3     1  UNL1        0.0557
     29 C         142.1506  145.0147  163.2959 C.ar    1  UNL1        0.1012
     30 C         141.6271  143.6196  163.4682 C.ar    1  UNL1        0.0613
     31 C         140.1897  143.6077  163.0398 C.ar    1  UNL1        0.2122
     32 O         139.8247  144.9954  162.6027 O.2     1  UNL1       -0.3506
     33 N         141.0366  145.8650  162.7611 N.ar    1  UNL1       -0.0812
@<TRIPOS>BOND
     1    28    29    1
     2    29    30   ar
     3    30    31   ar
     4    31    22    1
     5    22    23   ar
     6    23    24   ar
     7    24    25   ar
     8    25    21    1
     9    21    20    1
    10    20    19    1
    11    19    18    1
    12    18     1    1
    13     1     2    1
    14     2     3    1
    15     4     3    1
    16     4     5    1
    17     5     6    1
    18     6     8    1
    19     8     9   ar
    20     9    10   ar
    21    10    11   ar
    22    11    14    1
    23    14    15    1
    24    14    16    1
    25    14    17    1
    26    11    12   ar
    27    12    13   ar
    28     4     7    1
    29    25    26   ar
    30    26    27    1
    31    31    32   ar
    32    32    33   ar
    33    33    29   ar
    34    26    22   ar
    35     7     1    1
    36     6     4    1
    37    13     8   ar
@<TRIPOS>MOLECULE
*****
 33 37 0 0 0
SMALL
GASTEIGER

@<TRIPOS>ATOM
      1 N         144.0489  142.6858  162.8111 N.3     1  UNL1       -0.2726
      2 C         144.8663  141.5583  162.2538 C.3     1  UNL1        0.0721
      3 C         144.8512  140.4379  163.2509 C.3     1  UNL1        0.0190
      4 C         144.0245  140.8728  164.4245 C.3     1  UNL1        0.0201
      5 C         144.1895  139.6061  165.2107 C.3     1  UNL1        0.0061
      6 C         143.3721  140.7335  165.7680 C.3     1  UNL1        0.0237
      7 C         143.5286  142.2621  164.1527 C.3     1  UNL1        0.0724
      8 C         142.5235  141.3040  166.8655 C.ar    1  UNL1       -0.0225
      9 C         141.0363  141.1100  166.8415 C.ar    1  UNL1       -0.0043
     10 C         140.1877  141.6805  167.9389 C.ar    1  UNL1        0.0035
     11 C         140.8264  142.4451  169.0603 C.ar    1  UNL1        0.0714
     12 C         142.3136  142.6391  169.0843 C.ar    1  UNL1        0.0035
     13 C         143.1622  142.0686  167.9869 C.ar    1  UNL1       -0.0043
     14 C         139.9778  143.0156  170.1577 C.3     1  UNL1        0.4186
     15 F         139.1291  143.5862  171.2552 F       1  UNL1       -0.1659
     16 F         140.6206  144.3561  169.9580 F       1  UNL1       -0.1659
     17 F         139.3349  141.6752  170.3575 F       1  UNL1       -0.1659
     18 C         143.7961  144.0053  162.1440 C.3     1  UNL1        0.0730
     19 C         142.4257  144.3362  161.6315 C.3     1  UNL1        0.0294
     20 C         142.0004  143.8683  160.2712 C.3     1  UNL1        0.0666
     21 S         140.5683  143.5006  160.0185 S.3     1  UNL1       -0.0756
     22 C         138.9547  141.4099  162.8629 C.ar    1  UNL1        0.2043
     23 N         137.9880  142.5521  162.7584 N.ar    1  UNL1       -0.1249
     24 N         138.4748  143.4743  161.6802 N.ar    1  UNL1       -0.1220
     25 C         139.7424  142.9020  161.1183 C.ar    1  UNL1        0.1933
     26 N         140.0390  141.6262  161.8492 N.ar    1  UNL1       -0.2859
     27 C         141.2137  140.7249  161.6086 C.3     1  UNL1        0.1341
     28 C         137.6399  138.4198  167.0116 C.3     1  UNL1        0.0557
     29 C         138.2503  138.8800  165.7210 C.ar    1  UNL1        0.1012
     30 C         138.0670  140.2285  165.0903 C.ar    1  UNL1        0.0613
     31 C         138.8547  140.2543  163.8141 C.ar    1  UNL1        0.2122
     32 O         139.5248  138.9216  163.6559 O.2     1  UNL1       -0.3506
     33 N         139.1513  138.0723  164.8345 N.ar    1  UNL1       -0.0812
@<TRIPOS>BOND
     1    28    29    1
     2    29    30   ar
     3    30    31   ar
     4    31    22    1
     5    22    23   ar
     6    23    24   ar
     7    24    25   ar
     8    25    21    1
     9    21    20    1
    10    20    19    1
    11    19    18    1
    12    18     1    1
    13     1     2    1
    14     2     3    1
    15     4     3    1
    16     4     5    1
    17     5     6    1
    18     6     8    1
    19     8     9   ar
    20     9    10   ar
    21    10    11   ar
    22    11    14    1
    23    14    15    1
    24    14    16    1
    25    14    17    1
    26    11    12   ar
    27    12    13   ar
    28     4     7    1
    29    25    26   ar
    30    26    27    1
    31    31    32   ar
    32    32    33   ar
    33    33    29   ar
    34    26    22   ar
    35     7     1    1
    36     6     4    1
    37    13     8   ar
@<TRIPOS>MOLECULE
*****
 33 37 0 0 0
SMALL
GASTEIGER

@<TRIPOS>ATOM
      1 N         143.1565  143.7219  163.4781 N.3     1  UNL1       -0.2726
      2 C         142.8975  145.1823  163.2544 C.3     1  UNL1        0.0721
      3 C         141.4933  145.4764  163.6920 C.3     1  UNL1        0.0190
      4 C         140.8843  144.1978  164.1863 C.3     1  UNL1        0.0201
      5 C         139.5490  144.7849  164.5360 C.3     1  UNL1        0.0061
      6 C         139.8080  143.3245  164.7597 C.3     1  UNL1        0.0237
      7 C         141.9123  143.1134  164.0541 C.3     1  UNL1        0.0724
      8 C         139.3361  141.9771  165.2200 C.ar    1  UNL1       -0.0225
      9 C         138.4048  141.1747  164.3604 C.ar    1  UNL1       -0.0043
     10 C         137.9329  139.8273  164.8207 C.ar    1  UNL1        0.0035
     11 C         138.3923  139.2823  166.1405 C.ar    1  UNL1        0.0714
     12 C         139.3236  140.0847  167.0001 C.ar    1  UNL1        0.0035
     13 C         139.7955  141.4321  166.5398 C.ar    1  UNL1       -0.0043
     14 C         137.9204  137.9349  166.6007 C.3     1  UNL1        0.4186
     15 F         137.4485  136.5875  167.0610 F       1  UNL1       -0.1659
     16 F         138.6673  137.2879  165.4723 F       1  UNL1       -0.1659
     17 F         137.1735  138.5820  167.7292 F       1  UNL1       -0.1659
     18 C         144.4351  142.9972  163.1785 C.3     1  UNL1        0.0730
     19 C         145.1353  142.2322  164.2623 C.3     1  UNL1        0.0294
     20 C         145.7405  140.8925  163.9638 C.3     1  UNL1        0.0666
     21 S         145.0231  139.6386  164.3677 S.3     1  UNL1       -0.0756
     22 C         141.5279  139.3300  162.7083 C.ar    1  UNL1        0.2043
     23 N         141.2088  138.9619  164.1270 N.ar    1  UNL1       -0.1249
     24 N         142.4792  139.0327  164.9213 N.ar    1  UNL1       -0.1220
     25 C         143.5836  139.4446  163.9935 C.ar    1  UNL1        0.1933
     26 N         142.9956  139.6283  162.6258 N.ar    1  UNL1       -0.2859
     27 C         143.7440  140.0384  161.3922 C.3     1  UNL1        0.1341
     28 C         138.3785  141.1559  158.8836 C.3     1  UNL1        0.0557
     29 C         139.1032  140.2287  159.8137 C.ar    1  UNL1        0.1012
     30 C         140.0670  140.6344  160.8891 C.ar    1  UNL1        0.0613
     31 C         140.5508  139.3894  161.5717 C.ar    1  UNL1        0.2122
     32 O         139.8861  138.2142  160.9181 O.2     1  UNL1       -0.3506
     33 N         138.9914  138.7330  159.8317 N.ar    1  UNL1       -0.0812
@<TRIPOS>BOND
     1    28    29    1
     2    29    30   ar
     3    30    31   ar
     4    31    22    1
     5    22    23   ar
     6    23    24   ar
     7    24    25   ar
     8    25    21    1
     9    21    20    1
    10    20    19    1
    11    19    18    1
    12    18     1    1
    13     1     2    1
    14     2     3    1
    15     4     3    1
    16     4     5    1
    17     5     6    1
    18     6     8    1
    19     8     9   ar
    20     9    10   ar
    21    10    11   ar
    22    11    14    1
    23    14    15    1
    24    14    16    1
    25    14    17    1
    26    11    12   ar
    27    12    13   ar
    28     4     7    1
    29    25    26   ar
    30    26    27    1
    31    31    32   ar
    32    32    33   ar
    33    33    29   ar
    34    26    22   ar
    35     7     1    1
    36     6     4    1
    37    13     8   ar
@<TRIPOS>MOLECULE
*****
 33 37 0 0 0
SMALL
GASTEIGER

@<TRIPOS>ATOM
      1 N         144.3752  142.8323  164.1081 N.3     1  UNL1       -0.2726
      2 C         145.4120  142.0367  163.3718 C.3     1  UNL1        0.0721
      3 C         145.2680  140.5998  163.7776 C.3     1  UNL1        0.0190
      4 C         144.1424  140.5074  164.7647 C.3     1  UNL1        0.0201
      5 C         144.2380  139.0250  164.9733 C.3     1  UNL1        0.0061
      6 C         143.2012  139.8207  165.7095 C.3     1  UNL1        0.0237
      7 C         143.5906  141.8872  164.9690 C.3     1  UNL1        0.0724
      8 C         142.0593  139.8836  166.6801 C.ar    1  UNL1       -0.0225
      9 C         142.3243  139.8193  168.1552 C.ar    1  UNL1       -0.0043
     10 C         141.1824  139.8822  169.1257 C.ar    1  UNL1        0.0035
     11 C         139.7755  140.0094  168.6213 C.ar    1  UNL1        0.0714
     12 C         139.5105  140.0737  167.1463 C.ar    1  UNL1        0.0035
     13 C         140.6524  140.0107  166.1757 C.ar    1  UNL1       -0.0043
     14 C         138.6336  140.0723  169.5919 C.3     1  UNL1        0.4186
     15 F         137.4916  140.1352  170.5626 F       1  UNL1       -0.1659
     16 F         137.7918  139.2585  168.6543 F       1  UNL1       -0.1659
     17 F         139.4754  140.8861  170.5295 F       1  UNL1       -0.1659
     18 C         144.1608  144.3131  164.0022 C.3     1  UNL1        0.0730
     19 C         143.1132  144.8548  163.0754 C.3     1  UNL1        0.0294
     20 C         141.6801  144.9124  163.5149 C.3     1  UNL1        0.0666
     21 S         140.6218  145.3840  162.5622 S.3     1  UNL1       -0.0756
     22 C         138.7640  142.6964  160.4667 C.ar    1  UNL1        0.2043
     23 N         137.7128  143.0559  161.4746 N.ar    1  UNL1       -0.1249
     24 N         138.2808  144.1064  162.3822 N.ar    1  UNL1       -0.1220
     25 C         139.6831  144.3962  161.9353 C.ar    1  UNL1        0.1933
     26 N         139.9818  143.5248  160.7515 N.ar    1  UNL1       -0.2859
     27 C         141.2716  143.4881  159.9867 C.3     1  UNL1        0.1341
     28 C         137.7099  140.4731  155.7948 C.3     1  UNL1        0.0557
     29 C         138.1379  140.6641  157.2197 C.ar    1  UNL1        0.1012
     30 C         138.1078  141.9544  157.9840 C.ar    1  UNL1        0.0613
     31 C         138.6224  141.6859  159.3672 C.ar    1  UNL1        0.2122
     32 O         138.9705  140.2297  159.4578 O.2     1  UNL1       -0.3506
     33 N         138.6710  139.5982  158.1306 N.ar    1  UNL1       -0.0812
@<TRIPOS>BOND
     1    28    29    1
     2    29    30   ar
     3    30    31   ar
     4    31    22    1
     5    22    23   ar
     6    23    24   ar
     7    24    25   ar
     8    25    21    1
     9    21    20    1
    10    20    19    1
    11    19    18    1
    12    18     1    1
    13     1     2    1
    14     2     3    1
    15     4     3    1
    16     4     5    1
    17     5     6    1
    18     6     8    1
    19     8     9   ar
    20     9    10   ar
    21    10    11   ar
    22    11    14    1
    23    14    15    1
    24    14    16    1
    25    14    17    1
    26    11    12   ar
    27    12    13   ar
    28     4     7    1
    29    25    26   ar
    30    26    27    1
    31    31    32   ar
    32    32    33   ar
    33    33    29   ar
    34    26    22   ar
    35     7     1    1
    36     6     4    1
    37    13     8   ar
@<TRIPOS>MOLECULE
*****
 33 37 0 0 0
SMALL
GASTEIGER

@<TRIPOS>ATOM
      1 N         142.4435  142.7476  161.2429 N.3     1  UNL1       -0.2726
      2 C         143.6932  142.9419  160.4363 C.3     1  UNL1        0.0721
      3 C         144.8637  142.5739  161.2991 C.3     1  UNL1        0.0190
      4 C         144.3375  142.1521  162.6389 C.3     1  UNL1        0.0201
      5 C         145.6765  141.8595  163.2483 C.3     1  UNL1        0.0061
      6 C         144.4269  141.6651  164.0549 C.3     1  UNL1        0.0237
      7 C         142.8417  142.2594  162.6042 C.3     1  UNL1        0.0724
      8 C         143.7570  141.2717  165.3380 C.ar    1  UNL1       -0.0225
      9 C         143.3925  142.3210  166.3461 C.ar    1  UNL1       -0.0043
     10 C         142.7226  141.9276  167.6293 C.ar    1  UNL1        0.0035
     11 C         142.4173  140.4850  167.9043 C.ar    1  UNL1        0.0714
     12 C         142.7818  139.4358  166.8962 C.ar    1  UNL1        0.0035
     13 C         143.4516  139.8291  165.6131 C.ar    1  UNL1       -0.0043
     14 C         141.7474  140.0916  169.1875 C.3     1  UNL1        0.4186
     15 F         141.0775  139.6982  170.4707 F       1  UNL1       -0.1659
     16 F         142.3910  138.7390  169.1088 F       1  UNL1       -0.1659
     17 F         141.1038  141.4442  169.2662 F       1  UNL1       -0.1659
     18 C         141.0418  142.9975  160.7710 C.3     1  UNL1        0.0730
     19 C         140.6288  144.3745  160.3430 C.3     1  UNL1        0.0294
     20 C         140.4471  145.4554  161.3671 C.3     1  UNL1        0.0666
     21 S         139.2884  145.4005  162.3180 S.3     1  UNL1       -0.0756
     22 C         138.3746  142.0054  163.9625 C.ar    1  UNL1        0.2043
     23 N         137.3747  142.0652  162.8459 N.ar    1  UNL1       -0.1249
     24 N         137.5953  143.3442  162.0940 N.ar    1  UNL1       -0.1220
     25 C         138.7315  144.0750  162.7459 C.ar    1  UNL1        0.1933
     26 N         139.2132  143.2476  163.9006 N.ar    1  UNL1       -0.2859
     27 C         140.3363  143.6005  164.8303 C.3     1  UNL1        0.1341
     28 C         138.0783  137.2771  166.2939 C.3     1  UNL1        0.0557
     29 C         138.3756  138.7246  166.0365 C.ar    1  UNL1        0.1012
     30 C         138.0305  139.4878  164.7922 C.ar    1  UNL1        0.0613
     31 C         138.5118  140.8980  164.9649 C.ar    1  UNL1        0.2122
     32 O         139.1544  141.0063  166.3159 O.2     1  UNL1       -0.3506
     33 N         139.0702  139.6630  166.9782 N.ar    1  UNL1       -0.0812
@<TRIPOS>BOND
     1    28    29    1
     2    29    30   ar
     3    30    31   ar
     4    31    22    1
     5    22    23   ar
     6    23    24   ar
     7    24    25   ar
     8    25    21    1
     9    21    20    1
    10    20    19    1
    11    19    18    1
    12    18     1    1
    13     1     2    1
    14     2     3    1
    15     4     3    1
    16     4     5    1
    17     5     6    1
    18     6     8    1
    19     8     9   ar
    20     9    10   ar
    21    10    11   ar
    22    11    14    1
    23    14    15    1
    24    14    16    1
    25    14    17    1
    26    11    12   ar
    27    12    13   ar
    28     4     7    1
    29    25    26   ar
    30    26    27    1
    31    31    32   ar
    32    32    33   ar
    33    33    29   ar
    34    26    22   ar
    35     7     1    1
    36     6     4    1
    37    13     8   ar
