@<TRIPOS>MOLECULE
*****
 30 34 0 0 0
SMALL
GASTEIGER

@<TRIPOS>ATOM
      1 C         141.3183  140.1927  163.4933 C.3     1  UNL1        0.0892
      2 C         140.1852  141.1443  163.7393 C.3     1  UNL1        0.1584
      3 O         139.8600  141.5778  165.1380 O.3     1  UNL1       -0.3490
      4 C         140.6679  141.0595  166.2908 C.3     1  UNL1        0.1538
      5 C         141.8010  140.1078  166.0447 C.3     1  UNL1        0.0841
      6 N         142.6089  139.5895  167.1974 N.3     1  UNL1       -0.3199
      7 C         142.1262  139.6744  164.6460 C.3     1  UNL1        0.0368
      8 H         142.2523  139.9848  168.0675 H       1  UNL1        0.1189
      9 H         143.5853  139.8589  167.0767 H       1  UNL1        0.1189
     10 C         139.0849  136.9759  155.4486 C.3     1  UNL1        0.0522
     11 C         140.2713  137.4591  156.2290 C.ar    1  UNL1        0.0626
     12 C         141.6302  137.4761  155.5941 C.ar    1  UNL1        0.0355
     13 C         142.8166  137.9592  156.3745 C.ar    1  UNL1        0.1033
     14 N         142.6441  138.4254  157.7897 N.ar    1  UNL1       -0.2113
     15 N         143.6208  138.9519  158.7992 N.ar    1  UNL1       -0.1669
     16 C         142.8655  139.2603  160.0579 C.ar    1  UNL1        0.0954
     17 C         141.4220  138.9244  159.8265 C.ar    1  UNL1        0.0463
     18 C         141.2853  138.4084  158.4246 C.ar    1  UNL1        0.1619
     19 N         140.0988  137.9252  157.6442 N.ar    1  UNL1       -0.2310
     20 C         140.6668  139.2327  161.0851 C.3     1  UNL1        0.1038
     21 N         141.6434  139.7593  162.0946 N.3     1  UNL1       -0.2627
     22 C         143.0023  139.7763  161.4597 C.3     1  UNL1        0.1205
     23 C         140.3428  141.4929  167.6895 C.ar    1  UNL1        0.0355
     24 C         140.7853  142.8398  168.1793 C.ar    1  UNL1        0.0300
     25 C         140.4602  143.2732  169.5780 C.ar    1  UNL1        0.1400
     26 F         140.9028  144.6201  170.0678 F       1  UNL1       -0.2042
     27 C         139.6925  142.3597  170.4869 C.ar    1  UNL1        0.0319
     28 C         139.2499  141.0128  169.9971 C.ar    1  UNL1        0.0317
     29 C         139.5750  140.5794  168.5984 C.ar    1  UNL1        0.1386
     30 F         139.1324  139.2324  168.1085 F       1  UNL1       -0.2044
@<TRIPOS>BOND
     1    10    11    1
     2    11    12   ar
     3    12    13   ar
     4    13    14   ar
     5    14    15   ar
     6    15    16   ar
     7    16    17   ar
     8    17    18   ar
     9    18    19   ar
    10    17    20    1
    11    20    21    1
    12     1    21    1
    13     1     2    1
    14     2     3    1
    15     3     4    1
    16     4    23    1
    17    23    24   ar
    18    24    25   ar
    19    25    26    1
    20    25    27   ar
    21    27    28   ar
    22    28    29   ar
    23    29    30    1
    24     4     5    1
    25     5     6    1
    26     5     7    1
    27    21    22    1
    28    19    11   ar
    29     7     1    1
    30    18    14   ar
    31    29    23   ar
    32    22    16    1
    33     6     8    1
    34     6     9    1
@<TRIPOS>MOLECULE
*****
 30 34 0 0 0
SMALL
GASTEIGER

@<TRIPOS>ATOM
      1 C         141.3137  143.0596  163.3573 C.3     1  UNL1        0.0892
      2 C         139.9335  142.7253  163.8402 C.3     1  UNL1        0.1584
      3 O         139.7173  142.3119  165.2659 O.3     1  UNL1       -0.3490
      4 C         140.8813  142.2329  166.2086 C.3     1  UNL1        0.1538
      5 C         142.2616  142.5673  165.7256 C.3     1  UNL1        0.0841
      6 N         143.4257  142.4883  166.6683 N.3     1  UNL1       -0.3199
      7 C         142.4778  142.9806  164.3000 C.3     1  UNL1        0.0368
      8 H         143.0987  142.1936  167.5884 H       1  UNL1        0.1189
      9 H         143.8666  143.4051  166.7417 H       1  UNL1        0.1189
     10 C         138.9620  147.4088  155.9003 C.3     1  UNL1        0.0522
     11 C         140.0397  146.5208  156.4482 C.ar    1  UNL1        0.0626
     12 C         141.1989  146.1263  155.5819 C.ar    1  UNL1        0.0355
     13 C         142.2766  145.2383  156.1298 C.ar    1  UNL1        0.1033
     14 N         142.1950  144.7449  157.5440 N.ar    1  UNL1       -0.2113
     15 N         143.1002  143.8645  158.3536 N.ar    1  UNL1       -0.1669
     16 C         142.5003  143.7149  159.7203 C.ar    1  UNL1        0.0954
     17 C         141.2245  144.5029  159.7553 C.ar    1  UNL1        0.0463
     18 C         141.0358  145.1395  158.4102 C.ar    1  UNL1        0.1619
     19 N         139.9581  146.0274  157.8623 N.ar    1  UNL1       -0.2310
     20 C         140.6247  144.3533  161.1220 C.3     1  UNL1        0.1038
     21 N         141.5298  143.4729  161.9316 N.3     1  UNL1       -0.2627
     22 C         142.6891  143.0784  161.0654 C.3     1  UNL1        0.1205
     23 C         140.6652  141.8196  167.6342 C.ar    1  UNL1        0.0355
     24 C         140.2200  142.8306  168.6489 C.ar    1  UNL1        0.0300
     25 C         140.0039  142.4172  170.0745 C.ar    1  UNL1        0.1400
     26 F         139.5586  143.4283  171.0892 F       1  UNL1       -0.2042
     27 C         140.2329  140.9930  170.4855 C.ar    1  UNL1        0.0319
     28 C         140.6782  139.9820  169.4708 C.ar    1  UNL1        0.0317
     29 C         140.8943  140.3953  168.0451 C.ar    1  UNL1        0.1386
     30 F         141.3396  139.3843  167.0304 F       1  UNL1       -0.2044
@<TRIPOS>BOND
     1    10    11    1
     2    11    12   ar
     3    12    13   ar
     4    13    14   ar
     5    14    15   ar
     6    15    16   ar
     7    16    17   ar
     8    17    18   ar
     9    18    19   ar
    10    17    20    1
    11    20    21    1
    12     1    21    1
    13     1     2    1
    14     2     3    1
    15     3     4    1
    16     4    23    1
    17    23    24   ar
    18    24    25   ar
    19    25    26    1
    20    25    27   ar
    21    27    28   ar
    22    28    29   ar
    23    29    30    1
    24     4     5    1
    25     5     6    1
    26     5     7    1
    27    21    22    1
    28    19    11   ar
    29     7     1    1
    30    18    14   ar
    31    29    23   ar
    32    22    16    1
    33     6     8    1
    34     6     9    1
@<TRIPOS>MOLECULE
*****
 30 34 0 0 0
SMALL
GASTEIGER

@<TRIPOS>ATOM
      1 C         140.0922  139.8097  162.8461 C.3     1  UNL1        0.0892
      2 C         138.9974  140.6960  163.3618 C.3     1  UNL1        0.1584
      3 O         138.9533  141.0653  164.8150 O.3     1  UNL1       -0.3490
      4 C         140.0040  140.5483  165.7525 C.3     1  UNL1        0.1538
      5 C         141.0988  139.6620  165.2367 C.3     1  UNL1        0.0841
      6 N         142.1495  139.1450  166.1742 N.3     1  UNL1       -0.3199
      7 C         141.1429  139.2927  163.7835 C.3     1  UNL1        0.0368
      8 H         141.9661  139.4925  167.1154 H       1  UNL1        0.1189
      9 H         143.0675  139.4657  165.8662 H       1  UNL1        0.1189
     10 C         144.1442  136.4087  155.6304 C.3     1  UNL1        0.0522
     11 C         142.8535  137.0405  156.0605 C.ar    1  UNL1        0.0626
     12 C         141.7524  137.2500  155.0637 C.ar    1  UNL1        0.0355
     13 C         140.4617  137.8818  155.4938 C.ar    1  UNL1        0.1033
     14 N         140.2722  138.3041  156.9205 N.ar    1  UNL1       -0.2113
     15 N         139.1191  138.9476  157.6321 N.ar    1  UNL1       -0.1669
     16 C         139.5077  139.1359  159.0686 C.ar    1  UNL1        0.0954
     17 C         140.9009  138.6087  159.2449 C.ar    1  UNL1        0.0463
     18 C         141.3733  138.0946  157.9172 C.ar    1  UNL1        0.1619
     19 N         142.6640  137.4628  157.4872 N.ar    1  UNL1       -0.2310
     20 C         141.2894  138.7969  160.6814 C.3     1  UNL1        0.1038
     21 N         140.1364  139.4405  161.3929 N.3     1  UNL1       -0.2627
     22 C         139.0352  139.6500  160.3962 C.3     1  UNL1        0.1205
     23 C         139.9598  140.9175  167.2056 C.ar    1  UNL1        0.0355
     24 C         140.6979  142.1283  167.6946 C.ar    1  UNL1        0.0300
     25 C         140.6538  142.4975  169.1477 C.ar    1  UNL1        0.1400
     26 F         141.3919  143.7084  169.6366 F       1  UNL1       -0.2042
     27 C         139.8716  141.6560  170.1119 C.ar    1  UNL1        0.0319
     28 C         139.1335  140.4451  169.6231 C.ar    1  UNL1        0.0317
     29 C         139.1776  140.0759  168.1699 C.ar    1  UNL1        0.1386
     30 F         138.4395  138.8650  167.6810 F       1  UNL1       -0.2044
@<TRIPOS>BOND
     1    10    11    1
     2    11    12   ar
     3    12    13   ar
     4    13    14   ar
     5    14    15   ar
     6    15    16   ar
     7    16    17   ar
     8    17    18   ar
     9    18    19   ar
    10    17    20    1
    11    20    21    1
    12     1    21    1
    13     1     2    1
    14     2     3    1
    15     3     4    1
    16     4    23    1
    17    23    24   ar
    18    24    25   ar
    19    25    26    1
    20    25    27   ar
    21    27    28   ar
    22    28    29   ar
    23    29    30    1
    24     4     5    1
    25     5     6    1
    26     5     7    1
    27    21    22    1
    28    19    11   ar
    29     7     1    1
    30    18    14   ar
    31    29    23   ar
    32    22    16    1
    33     6     8    1
    34     6     9    1
@<TRIPOS>MOLECULE
*****
 30 34 0 0 0
SMALL
GASTEIGER

@<TRIPOS>ATOM
      1 C         142.1355  138.9896  161.9358 C.3     1  UNL1        0.0892
      2 C         140.9383  139.4552  162.7104 C.3     1  UNL1        0.1584
      3 O         141.0940  139.9053  164.1329 O.3     1  UNL1       -0.3490
      4 C         142.4468  139.8898  164.7807 C.3     1  UNL1        0.1538
      5 C         143.6440  139.4242  164.0060 C.3     1  UNL1        0.0841
      6 N         144.9969  139.4087  164.6538 N.3     1  UNL1       -0.3199
      7 C         143.4883  138.9741  162.5836 C.3     1  UNL1        0.0368
      8 H         144.9180  139.7442  165.6138 H       1  UNL1        0.1189
      9 H         145.6303  140.0151  164.1327 H       1  UNL1        0.1189
     10 C         137.3796  137.8065  154.4503 C.3     1  UNL1        0.0522
     11 C         138.7533  137.5891  155.0121 C.ar    1  UNL1        0.0626
     12 C         139.8223  136.9700  154.1613 C.ar    1  UNL1        0.0355
     13 C         141.1960  136.7526  154.7232 C.ar    1  UNL1        0.1033
     14 N         141.5007  137.1543  156.1358 N.ar    1  UNL1       -0.2113
     15 N         142.7527  137.0643  156.9571 N.ar    1  UNL1       -0.1669
     16 C         142.4575  137.6278  158.3155 C.ar    1  UNL1        0.0954
     17 C         141.0231  138.0661  158.3338 C.ar    1  UNL1        0.0463
     18 C         140.4318  137.7735  156.9866 C.ar    1  UNL1        0.1619
     19 N         139.0581  137.9909  156.4248 N.ar    1  UNL1       -0.2310
     20 C         140.7279  138.6296  159.6922 C.3     1  UNL1        0.1038
     21 N         141.9798  138.5395  160.5135 N.3     1  UNL1       -0.2627
     22 C         143.0488  137.9204  159.6626 C.3     1  UNL1        0.1205
     23 C         142.6025  140.3399  166.2030 C.ar    1  UNL1        0.0355
     24 C         142.4639  139.3508  167.3221 C.ar    1  UNL1        0.0300
     25 C         142.6196  139.8009  168.7445 C.ar    1  UNL1        0.1400
     26 F         142.4810  138.8117  169.8635 F       1  UNL1       -0.2042
     27 C         142.9138  141.2400  169.0478 C.ar    1  UNL1        0.0319
     28 C         143.0524  142.2292  167.9287 C.ar    1  UNL1        0.0317
     29 C         142.8968  141.7791  166.5064 C.ar    1  UNL1        0.1386
     30 F         143.0354  142.7683  165.3872 F       1  UNL1       -0.2044
@<TRIPOS>BOND
     1    10    11    1
     2    11    12   ar
     3    12    13   ar
     4    13    14   ar
     5    14    15   ar
     6    15    16   ar
     7    16    17   ar
     8    17    18   ar
     9    18    19   ar
    10    17    20    1
    11    20    21    1
    12     1    21    1
    13     1     2    1
    14     2     3    1
    15     3     4    1
    16     4    23    1
    17    23    24   ar
    18    24    25   ar
    19    25    26    1
    20    25    27   ar
    21    27    28   ar
    22    28    29   ar
    23    29    30    1
    24     4     5    1
    25     5     6    1
    26     5     7    1
    27    21    22    1
    28    19    11   ar
    29     7     1    1
    30    18    14   ar
    31    29    23   ar
    32    22    16    1
    33     6     8    1
    34     6     9    1
@<TRIPOS>MOLECULE
*****
 30 34 0 0 0
SMALL
GASTEIGER

@<TRIPOS>ATOM
      1 C         141.4961  138.7479  162.6080 C.3     1  UNL1        0.0892
      2 C         141.1292  137.6301  163.5385 C.3     1  UNL1        0.1584
      3 O         141.0477  137.8797  165.0154 O.3     1  UNL1       -0.3490
      4 C         141.3330  139.2473  165.5617 C.3     1  UNL1        0.1538
      5 C         141.6999  140.3652  164.6311 C.3     1  UNL1        0.0841
      6 N         141.9853  141.7327  165.1775 N.3     1  UNL1       -0.3199
      7 C         141.7814  140.1155  163.1543 C.3     1  UNL1        0.0368
      8 H         141.8840  141.7213  166.1924 H       1  UNL1        0.1189
      9 H         141.3280  142.4025  164.7777 H       1  UNL1        0.1189
     10 C         137.8368  137.7185  154.5085 C.3     1  UNL1        0.0522
     11 C         139.1673  137.7223  155.2010 C.ar    1  UNL1        0.0626
     12 C         140.4229  137.4890  154.4143 C.ar    1  UNL1        0.0355
     13 C         141.7535  137.4927  155.1068 C.ar    1  UNL1        0.1033
     14 N         141.8285  137.7299  156.5860 N.ar    1  UNL1       -0.2113
     15 N         142.9882  137.7900  157.5354 N.ar    1  UNL1       -0.1669
     16 C         142.4494  138.0606  158.9089 C.ar    1  UNL1        0.0954
     17 C         140.9566  138.1676  158.8084 C.ar    1  UNL1        0.0463
     18 C         140.5729  137.9632  157.3727 C.ar    1  UNL1        0.1619
     19 N         139.2423  137.9594  156.6802 N.ar    1  UNL1       -0.2310
     20 C         140.4179  138.4381  160.1818 C.3     1  UNL1        0.1038
     21 N         141.5776  138.4983  161.1312 N.3     1  UNL1       -0.2627
     22 C         142.8332  138.2649  160.3445 C.3     1  UNL1        0.1205
     23 C         141.2515  139.4969  167.0385 C.ar    1  UNL1        0.0355
     24 C         139.9747  139.9988  167.6450 C.ar    1  UNL1        0.0300
     25 C         139.8932  140.2484  169.1218 C.ar    1  UNL1        0.1400
     26 F         138.6164  140.7503  169.7282 F       1  UNL1       -0.2042
     27 C         141.0885  139.9963  169.9921 C.ar    1  UNL1        0.0319
     28 C         142.3654  139.4944  169.3857 C.ar    1  UNL1        0.0317
     29 C         142.4469  139.2448  167.9089 C.ar    1  UNL1        0.1386
     30 F         143.7238  138.7429  167.3024 F       1  UNL1       -0.2044
@<TRIPOS>BOND
     1    10    11    1
     2    11    12   ar
     3    12    13   ar
     4    13    14   ar
     5    14    15   ar
     6    15    16   ar
     7    16    17   ar
     8    17    18   ar
     9    18    19   ar
    10    17    20    1
    11    20    21    1
    12     1    21    1
    13     1     2    1
    14     2     3    1
    15     3     4    1
    16     4    23    1
    17    23    24   ar
    18    24    25   ar
    19    25    26    1
    20    25    27   ar
    21    27    28   ar
    22    28    29   ar
    23    29    30    1
    24     4     5    1
    25     5     6    1
    26     5     7    1
    27    21    22    1
    28    19    11   ar
    29     7     1    1
    30    18    14   ar
    31    29    23   ar
    32    22    16    1
    33     6     8    1
    34     6     9    1
@<TRIPOS>MOLECULE
*****
 30 34 0 0 0
SMALL
GASTEIGER

@<TRIPOS>ATOM
      1 C         140.5241  139.1399  162.9615 C.3     1  UNL1        0.0892
      2 C         140.4108  137.9703  163.8939 C.3     1  UNL1        0.1584
      3 O         140.4102  138.1912  165.3776 O.3     1  UNL1       -0.3490
      4 C         140.5229  139.5817  165.9289 C.3     1  UNL1        0.1538
      5 C         140.6362  140.7513  164.9964 C.3     1  UNL1        0.0841
      6 N         140.7489  142.1418  165.5477 N.3     1  UNL1       -0.3199
      7 C         140.6368  140.5304  163.5128 C.3     1  UNL1        0.0368
      8 H         140.7323  142.1058  166.5669 H       1  UNL1        0.1189
      9 H         139.9658  142.7041  165.2145 H       1  UNL1        0.1189
     10 C         144.5013  136.9291  155.2579 C.3     1  UNL1        0.0522
     11 C         143.1764  137.3658  155.8092 C.ar    1  UNL1        0.0626
     12 C         142.0037  137.5430  154.8909 C.ar    1  UNL1        0.0355
     13 C         140.6788  137.9797  155.4422 C.ar    1  UNL1        0.1033
     14 N         140.5266  138.2391  156.9117 N.ar    1  UNL1       -0.2113
     15 N         139.3531  138.6760  157.7376 N.ar    1  UNL1       -0.1669
     16 C         139.8007  138.7688  159.1663 C.ar    1  UNL1        0.0954
     17 C         141.2507  138.3892  159.2234 C.ar    1  UNL1        0.0463
     18 C         141.6993  138.0618  157.8300 C.ar    1  UNL1        0.1619
     19 N         143.0242  137.6252  157.2787 N.ar    1  UNL1       -0.2310
     20 C         141.6982  138.4820  160.6520 C.3     1  UNL1        0.1038
     21 N         140.5247  138.9190  161.4779 N.3     1  UNL1       -0.2627
     22 C         139.3520  139.0963  160.5597 C.3     1  UNL1        0.1205
     23 C         140.5223  139.8026  167.4125 C.ar    1  UNL1        0.0355
     24 C         139.2280  140.0253  168.1371 C.ar    1  UNL1        0.0300
     25 C         139.2274  140.2462  169.6207 C.ar    1  UNL1        0.1400
     26 F         137.9330  140.4690  170.3452 F       1  UNL1       -0.2042
     27 C         140.5211  140.2444  170.3797 C.ar    1  UNL1        0.0319
     28 C         141.8155  140.0217  169.6552 C.ar    1  UNL1        0.0317
     29 C         141.8161  139.8008  168.1716 C.ar    1  UNL1        0.1386
     30 F         143.1105  139.5781  167.4469 F       1  UNL1       -0.2044
@<TRIPOS>BOND
     1    10    11    1
     2    11    12   ar
     3    12    13   ar
     4    13    14   ar
     5    14    15   ar
     6    15    16   ar
     7    16    17   ar
     8    17    18   ar
     9    18    19   ar
    10    17    20    1
    11    20    21    1
    12     1    21    1
    13     1     2    1
    14     2     3    1
    15     3     4    1
    16     4    23    1
    17    23    24   ar
    18    24    25   ar
    19    25    26    1
    20    25    27   ar
    21    27    28   ar
    22    28    29   ar
    23    29    30    1
    24     4     5    1
    25     5     6    1
    26     5     7    1
    27    21    22    1
    28    19    11   ar
    29     7     1    1
    30    18    14   ar
    31    29    23   ar
    32    22    16    1
    33     6     8    1
    34     6     9    1
@<TRIPOS>MOLECULE
*****
 30 34 0 0 0
SMALL
GASTEIGER

@<TRIPOS>ATOM
      1 C         142.6958  139.3642  162.2386 C.3     1  UNL1        0.0892
      2 C         144.0062  139.6039  162.9281 C.3     1  UNL1        0.1584
      3 O         144.0333  139.9561  164.3859 O.3     1  UNL1       -0.3490
      4 C         142.7499  140.0687  165.1542 C.3     1  UNL1        0.1538
      5 C         141.4394  139.8290  164.4646 C.3     1  UNL1        0.0841
      6 N         140.1560  139.9416  165.2329 N.3     1  UNL1       -0.3199
      7 C         141.4124  139.4768  163.0069 C.3     1  UNL1        0.0368
      8 H         140.3602  140.1863  166.2019 H       1  UNL1        0.1189
      9 H         139.6631  139.0491  165.2042 H       1  UNL1        0.1189
     10 C         143.2523  133.5573  155.4546 C.3     1  UNL1        0.0522
     11 C         143.0301  135.0141  155.7345 C.ar    1  UNL1        0.0626
     12 C         142.8078  135.9703  154.6004 C.ar    1  UNL1        0.0355
     13 C         142.5856  137.4271  154.8802 C.ar    1  UNL1        0.1033
     14 N         142.5858  137.9278  156.2942 N.ar    1  UNL1       -0.2113
     15 N         142.3951  139.2980  156.8738 N.ar    1  UNL1       -0.1669
     16 C         142.4997  139.1887  158.3662 C.ar    1  UNL1        0.0954
     17 C         142.7549  137.7509  158.7089 C.ar    1  UNL1        0.0463
     18 C         142.8081  136.9716  157.4283 C.ar    1  UNL1        0.1619
     19 N         143.0303  135.5148  157.1484 N.ar    1  UNL1       -0.2310
     20 C         142.8595  137.6416  160.2012 C.3     1  UNL1        0.1038
     21 N         142.6688  139.0119  160.7808 N.3     1  UNL1       -0.2627
     22 C         142.4465  139.9681  159.6467 C.3     1  UNL1        0.1205
     23 C         142.7769  140.4210  166.6120 C.ar    1  UNL1        0.0355
     24 C         142.5786  139.3523  167.6456 C.ar    1  UNL1        0.0300
     25 C         142.6056  139.7046  169.1034 C.ar    1  UNL1        0.1400
     26 F         142.4074  138.6358  170.1370 F       1  UNL1       -0.2042
     27 C         142.8308  141.1255  169.5276 C.ar    1  UNL1        0.0319
     28 C         143.0291  142.1943  168.4940 C.ar    1  UNL1        0.0317
     29 C         143.0021  141.8421  167.0362 C.ar    1  UNL1        0.1386
     30 F         143.2003  142.9109  166.0025 F       1  UNL1       -0.2044
@<TRIPOS>BOND
     1    10    11    1
     2    11    12   ar
     3    12    13   ar
     4    13    14   ar
     5    14    15   ar
     6    15    16   ar
     7    16    17   ar
     8    17    18   ar
     9    18    19   ar
    10    17    20    1
    11    20    21    1
    12     1    21    1
    13     1     2    1
    14     2     3    1
    15     3     4    1
    16     4    23    1
    17    23    24   ar
    18    24    25   ar
    19    25    26    1
    20    25    27   ar
    21    27    28   ar
    22    28    29   ar
    23    29    30    1
    24     4     5    1
    25     5     6    1
    26     5     7    1
    27    21    22    1
    28    19    11   ar
    29     7     1    1
    30    18    14   ar
    31    29    23   ar
    32    22    16    1
    33     6     8    1
    34     6     9    1
@<TRIPOS>MOLECULE
*****
 30 34 0 0 0
SMALL
GASTEIGER

@<TRIPOS>ATOM
      1 C         141.4883  140.1304  163.1622 C.3     1  UNL1        0.0892
      2 C         142.2688  139.5616  164.3099 C.3     1  UNL1        0.1584
      3 O         141.9145  139.9387  165.7179 O.3     1  UNL1       -0.3490
      4 C         140.7797  140.8846  165.9781 C.3     1  UNL1        0.1538
      5 C         139.9993  141.4534  164.8303 C.3     1  UNL1        0.0841
      6 N         138.8645  142.3993  165.0904 N.3     1  UNL1       -0.3199
      7 C         140.3535  141.0763  163.4224 C.3     1  UNL1        0.0368
      8 H         138.7651  142.5427  166.0954 H       1  UNL1        0.1189
      9 H         138.0012  142.0057  164.7161 H       1  UNL1        0.1189
     10 C         146.1981  141.1103  155.6184 C.3     1  UNL1        0.0522
     11 C         145.1097  140.2711  156.2193 C.ar    1  UNL1        0.0626
     12 C         144.4817  139.1704  155.4168 C.ar    1  UNL1        0.0355
     13 C         143.3933  138.3312  156.0177 C.ar    1  UNL1        0.1033
     14 N         142.9329  138.5927  157.4211 N.ar    1  UNL1       -0.2113
     15 N         141.8884  137.9353  158.2737 N.ar    1  UNL1       -0.1669
     16 C         141.8709  138.6297  159.6032 C.ar    1  UNL1        0.0954
     17 C         142.9046  139.7163  159.5723 C.ar    1  UNL1        0.0463
     18 C         143.5609  139.6933  158.2236 C.ar    1  UNL1        0.1619
     19 N         144.6493  140.5325  157.6227 N.ar    1  UNL1       -0.2310
     20 C         142.8870  140.4106  160.9017 C.3     1  UNL1        0.1038
     21 N         141.8426  139.7533  161.7543 N.3     1  UNL1       -0.2627
     22 C         141.2145  138.6526  160.9518 C.3     1  UNL1        0.1205
     23 C         140.4255  141.2617  167.3860 C.ar    1  UNL1        0.0355
     24 C         140.9176  142.5562  167.9622 C.ar    1  UNL1        0.0300
     25 C         140.5633  142.9333  169.3701 C.ar    1  UNL1        0.1400
     26 F         141.0555  144.2278  169.9462 F       1  UNL1       -0.2042
     27 C         139.7169  142.0159  170.2019 C.ar    1  UNL1        0.0319
     28 C         139.2247  140.7214  169.6257 C.ar    1  UNL1        0.0317
     29 C         139.5790  140.3443  168.2178 C.ar    1  UNL1        0.1386
     30 F         139.0868  139.0497  167.6416 F       1  UNL1       -0.2044
@<TRIPOS>BOND
     1    10    11    1
     2    11    12   ar
     3    12    13   ar
     4    13    14   ar
     5    14    15   ar
     6    15    16   ar
     7    16    17   ar
     8    17    18   ar
     9    18    19   ar
    10    17    20    1
    11    20    21    1
    12     1    21    1
    13     1     2    1
    14     2     3    1
    15     3     4    1
    16     4    23    1
    17    23    24   ar
    18    24    25   ar
    19    25    26    1
    20    25    27   ar
    21    27    28   ar
    22    28    29   ar
    23    29    30    1
    24     4     5    1
    25     5     6    1
    26     5     7    1
    27    21    22    1
    28    19    11   ar
    29     7     1    1
    30    18    14   ar
    31    29    23   ar
    32    22    16    1
    33     6     8    1
    34     6     9    1
@<TRIPOS>MOLECULE
*****
 30 34 0 0 0
SMALL
GASTEIGER

@<TRIPOS>ATOM
      1 C         142.2542  139.3723  162.9715 C.3     1  UNL1        0.0892
      2 C         142.0402  138.1412  163.8014 C.3     1  UNL1        0.1584
      3 O         141.7561  138.2660  165.2690 O.3     1  UNL1       -0.3490
      4 C         141.6860  139.6219  165.9067 C.3     1  UNL1        0.1538
      5 C         141.9001  140.8530  165.0768 C.3     1  UNL1        0.0841
      6 N         141.8301  142.2089  165.7145 N.3     1  UNL1       -0.3199
      7 C         142.1842  140.7282  163.6092 C.3     1  UNL1        0.0368
      8 H         141.6298  142.1067  166.7094 H       1  UNL1        0.1189
      9 H         141.0900  142.7545  165.2730 H       1  UNL1        0.1189
     10 C         140.8367  135.8378  154.8753 C.3     1  UNL1        0.0522
     11 C         141.6953  136.8463  155.5793 C.ar    1  UNL1        0.0626
     12 C         142.7250  137.6210  154.8116 C.ar    1  UNL1        0.0355
     13 C         143.5837  138.6295  155.5156 C.ar    1  UNL1        0.1033
     14 N         143.4126  138.8633  156.9873 N.ar    1  UNL1       -0.2113
     15 N         144.1083  139.7848  157.9448 N.ar    1  UNL1       -0.1669
     16 C         143.5086  139.5795  159.3043 C.ar    1  UNL1        0.0954
     17 C         142.4423  138.5312  159.1871 C.ar    1  UNL1        0.0463
     18 C         142.3829  138.0885  157.7551 C.ar    1  UNL1        0.1619
     19 N         141.5243  137.0800  157.0510 N.ar    1  UNL1       -0.2310
     20 C         141.8426  138.3259  160.5465 C.3     1  UNL1        0.1038
     21 N         142.5383  139.2474  161.5040 N.3     1  UNL1       -0.2627
     22 C         143.5680  140.0222  160.7363 C.3     1  UNL1        0.1205
     23 C         141.4020  139.7467  167.3742 C.ar    1  UNL1        0.0355
     24 C         142.5109  139.5772  168.3699 C.ar    1  UNL1        0.0300
     25 C         142.2268  139.7020  169.8374 C.ar    1  UNL1        0.1400
     26 F         143.3358  139.5325  170.8331 F       1  UNL1       -0.2042
     27 C         140.8338  139.9963  170.3093 C.ar    1  UNL1        0.0319
     28 C         139.7248  140.1659  169.3137 C.ar    1  UNL1        0.0317
     29 C         140.0089  140.0411  167.8461 C.ar    1  UNL1        0.1386
     30 F         138.8998  140.2106  166.8504 F       1  UNL1       -0.2044
@<TRIPOS>BOND
     1    10    11    1
     2    11    12   ar
     3    12    13   ar
     4    13    14   ar
     5    14    15   ar
     6    15    16   ar
     7    16    17   ar
     8    17    18   ar
     9    18    19   ar
    10    17    20    1
    11    20    21    1
    12     1    21    1
    13     1     2    1
    14     2     3    1
    15     3     4    1
    16     4    23    1
    17    23    24   ar
    18    24    25   ar
    19    25    26    1
    20    25    27   ar
    21    27    28   ar
    22    28    29   ar
    23    29    30    1
    24     4     5    1
    25     5     6    1
    26     5     7    1
    27    21    22    1
    28    19    11   ar
    29     7     1    1
    30    18    14   ar
    31    29    23   ar
    32    22    16    1
    33     6     8    1
    34     6     9    1
