@<TRIPOS>MOLECULE
*****
 25 28 0 0 0
SMALL
GASTEIGER

@<TRIPOS>ATOM
      1 N         143.6505  144.0043  171.4640 N.pl3   1  UNL1       -0.3375
      2 C         143.0290  143.1834  170.3732 C.ar    1  UNL1        0.1567
      3 N         143.7045  142.7401  169.1094 N.ar    1  UNL1       -0.2245
      4 C         142.7157  141.9445  168.3098 C.ar    1  UNL1        0.0889
      5 C         142.8208  141.2578  166.9803 C.ar    1  UNL1        0.0151
      6 C         141.6391  140.5227  166.4205 C.ar    1  UNL1       -0.0232
      7 C         140.3526  140.4744  167.1900 C.ar    1  UNL1       -0.0241
      8 C         140.2475  141.1610  168.5195 C.ar    1  UNL1        0.0035
      9 C         141.4291  141.8961  169.0794 C.ar    1  UNL1        0.0494
     10 S         141.6227  142.6618  170.3546 S.2     1  UNL1       -0.0520
     11 C         139.0643  139.8024  166.8171 C.3     1  UNL1        0.0434
     12 C         138.7446  139.0129  165.5823 C.3     1  UNL1        0.0771
     13 N         139.6341  138.7004  164.4157 N.3     1  UNL1       -0.2683
     14 C         141.0631  139.1001  164.1956 C.3     1  UNL1        0.0771
     15 C         141.9554  139.9111  165.0878 C.3     1  UNL1        0.0434
     16 H         144.5858  144.3012  171.3845 H       1  UNL1        0.1442
     17 H         143.1232  144.2462  172.2594 H       1  UNL1        0.1442
     18 C         139.0126  137.8795  163.3249 C.3     1  UNL1        0.0992
     19 C         138.8772  138.4475  161.9432 C.ar    1  UNL1       -0.0039
     20 C         137.7538  139.3898  161.6264 C.ar    1  UNL1       -0.0028
     21 C         137.6183  139.9578  160.2448 C.ar    1  UNL1        0.0020
     22 C         138.6062  139.5836  159.1799 C.ar    1  UNL1        0.0296
     23 C         139.7296  138.6413  159.4966 C.ar    1  UNL1        0.1399
     24 F         140.7175  138.2671  158.4317 F       1  UNL1       -0.2042
     25 C         139.8651  138.0733  160.8782 C.ar    1  UNL1        0.0267
@<TRIPOS>BOND
     1     1     2    1
     2     2     3   ar
     3     3     4   ar
     4     4     5   ar
     5     5     6   ar
     6     6     7   ar
     7     7     8   ar
     8     8     9   ar
     9     9    10   ar
    10     7    11    1
    11    11    12    1
    12    12    13    1
    13    13    18    1
    14    18    19    1
    15    19    20   ar
    16    20    21   ar
    17    21    22   ar
    18    22    23   ar
    19    23    24    1
    20    23    25   ar
    21    13    14    1
    22    14    15    1
    23    10     2   ar
    24    25    19   ar
    25     9     4   ar
    26    15     6    1
    27     1    16    1
    28     1    17    1
@<TRIPOS>MOLECULE
*****
 25 28 0 0 0
SMALL
GASTEIGER

@<TRIPOS>ATOM
      1 N         140.3009  142.3398  171.7633 N.pl3   1  UNL1       -0.3375
      2 C         140.1443  141.8989  170.3382 C.ar    1  UNL1        0.1567
      3 N         140.5529  142.6791  169.1239 N.ar    1  UNL1       -0.2245
      4 C         140.2129  141.8627  167.9124 C.ar    1  UNL1        0.0889
      5 C         140.3867  142.1233  166.4454 C.ar    1  UNL1        0.0151
      6 C         139.9417  141.0990  165.4439 C.ar    1  UNL1       -0.0232
      7 C         139.3230  139.8144  165.9093 C.ar    1  UNL1       -0.0241
      8 C         139.1491  139.5538  167.3762 C.ar    1  UNL1        0.0035
      9 C         139.5941  140.5780  168.3778 C.ar    1  UNL1        0.0494
     10 S         139.5517  140.6004  169.8770 S.2     1  UNL1       -0.0520
     11 C         138.8148  138.6686  165.0852 C.3     1  UNL1        0.0434
     12 C         138.7999  138.5247  163.5922 C.3     1  UNL1        0.0771
     13 N         139.2895  139.4908  162.5546 N.3     1  UNL1       -0.2683
     14 C         139.9149  140.8397  162.7536 C.3     1  UNL1        0.0771
     15 C         140.2052  141.5554  164.0394 C.3     1  UNL1        0.0434
     16 H         140.7039  143.2147  171.9665 H       1  UNL1        0.1442
     17 H         140.0005  141.7542  172.4956 H       1  UNL1        0.1442
     18 C         139.1329  139.0499  161.1294 C.3     1  UNL1        0.0992
     19 C         140.3330  138.6101  160.3442 C.ar    1  UNL1       -0.0039
     20 C         140.2946  138.6244  158.8447 C.ar    1  UNL1       -0.0028
     21 C         141.4945  138.1846  158.0595 C.ar    1  UNL1        0.0020
     22 C         142.7330  137.7306  158.7737 C.ar    1  UNL1        0.0296
     23 C         142.7714  137.7163  160.2732 C.ar    1  UNL1        0.1399
     24 F         144.0099  137.2622  160.9874 F       1  UNL1       -0.2042
     25 C         141.5715  138.1560  161.0584 C.ar    1  UNL1        0.0267
@<TRIPOS>BOND
     1     1     2    1
     2     2     3   ar
     3     3     4   ar
     4     4     5   ar
     5     5     6   ar
     6     6     7   ar
     7     7     8   ar
     8     8     9   ar
     9     9    10   ar
    10     7    11    1
    11    11    12    1
    12    12    13    1
    13    13    18    1
    14    18    19    1
    15    19    20   ar
    16    20    21   ar
    17    21    22   ar
    18    22    23   ar
    19    23    24    1
    20    23    25   ar
    21    13    14    1
    22    14    15    1
    23    10     2   ar
    24    25    19   ar
    25     9     4   ar
    26    15     6    1
    27     1    16    1
    28     1    17    1
@<TRIPOS>MOLECULE
*****
 25 28 0 0 0
SMALL
GASTEIGER

@<TRIPOS>ATOM
      1 N         143.7403  139.5072  171.4669 N.pl3   1  UNL1       -0.3375
      2 C         142.9784  139.9823  170.2653 C.ar    1  UNL1        0.1567
      3 N         142.6667  139.1723  169.0419 N.ar    1  UNL1       -0.2245
      4 C         141.8901  140.0403  168.0967 C.ar    1  UNL1        0.0889
      5 C         141.3144  139.7785  166.7365 C.ar    1  UNL1        0.0151
      6 C         140.5704  140.8633  166.0155 C.ar    1  UNL1       -0.0232
      7 C         140.4021  142.2097  166.6547 C.ar    1  UNL1       -0.0241
      8 C         140.9778  142.4716  168.0149 C.ar    1  UNL1        0.0035
      9 C         141.7218  141.3868  168.7359 C.ar    1  UNL1        0.0494
     10 S         142.3944  141.3510  170.0762 S.2     1  UNL1       -0.0520
     11 C         139.7015  143.4208  166.1138 C.3     1  UNL1        0.0434
     12 C         138.9961  143.5844  164.8001 C.3     1  UNL1        0.0771
     13 N         138.8173  142.5775  163.7030 N.3     1  UNL1       -0.2683
     14 C         139.2995  141.1581  163.6483 C.3     1  UNL1        0.0771
     15 C         140.0797  140.3952  164.6775 C.3     1  UNL1        0.0434
     16 H         144.0860  138.5859  171.4979 H       1  UNL1        0.1442
     17 H         143.8946  140.1166  172.2245 H       1  UNL1        0.1442
     18 C         138.0554  143.0526  162.5014 C.3     1  UNL1        0.0992
     19 C         138.7652  143.2576  161.1959 C.ar    1  UNL1       -0.0039
     20 C         138.4751  142.3537  160.0345 C.ar    1  UNL1       -0.0028
     21 C         139.1849  142.5586  158.7291 C.ar    1  UNL1        0.0020
     22 C         140.1849  143.6674  158.5851 C.ar    1  UNL1        0.0296
     23 C         140.4750  144.5712  159.7465 C.ar    1  UNL1        0.1399
     24 F         141.4751  145.6799  159.6025 F       1  UNL1       -0.2042
     25 C         139.7653  144.3663  161.0519 C.ar    1  UNL1        0.0267
@<TRIPOS>BOND
     1     1     2    1
     2     2     3   ar
     3     3     4   ar
     4     4     5   ar
     5     5     6   ar
     6     6     7   ar
     7     7     8   ar
     8     8     9   ar
     9     9    10   ar
    10     7    11    1
    11    11    12    1
    12    12    13    1
    13    13    18    1
    14    18    19    1
    15    19    20   ar
    16    20    21   ar
    17    21    22   ar
    18    22    23   ar
    19    23    24    1
    20    23    25   ar
    21    13    14    1
    22    14    15    1
    23    10     2   ar
    24    25    19   ar
    25     9     4   ar
    26    15     6    1
    27     1    16    1
    28     1    17    1
@<TRIPOS>MOLECULE
*****
 25 28 0 0 0
SMALL
GASTEIGER

@<TRIPOS>ATOM
      1 N         142.5690  140.6322  171.6745 N.pl3   1  UNL1       -0.3375
      2 C         142.1014  140.2805  170.2933 C.ar    1  UNL1        0.1567
      3 N         142.9710  139.8384  169.1538 N.ar    1  UNL1       -0.2245
      4 C         142.0890  139.5939  167.9654 C.ar    1  UNL1        0.0889
      5 C         142.3914  139.1438  166.5668 C.ar    1  UNL1        0.0151
      6 C         141.2789  138.9848  165.5732 C.ar    1  UNL1       -0.0232
      7 C         139.8643  139.2757  165.9781 C.ar    1  UNL1       -0.0241
      8 C         139.5619  139.7257  167.3767 C.ar    1  UNL1        0.0035
      9 C         140.6743  139.8848  168.3704 C.ar    1  UNL1        0.0494
     10 S         140.6820  140.3092  169.8091 S.2     1  UNL1       -0.0520
     11 C         138.6166  139.1822  165.1508 C.3     1  UNL1        0.0434
     12 C         138.4754  138.7745  163.7141 C.3     1  UNL1        0.0771
     13 N         139.5471  138.3598  162.7501 N.3     1  UNL1       -0.2683
     14 C         141.0246  138.2503  162.9844 C.3     1  UNL1        0.0771
     15 C         141.7954  138.5284  164.2409 C.3     1  UNL1        0.0434
     16 H         143.5266  140.5823  171.8975 H       1  UNL1        0.1442
     17 H         141.9184  140.9130  172.3579 H       1  UNL1        0.1442
     18 C         139.0794  138.0082  161.3689 C.3     1  UNL1        0.0992
     19 C         139.0906  139.0463  160.2861 C.ar    1  UNL1       -0.0039
     20 C         139.6005  138.6985  158.9190 C.ar    1  UNL1       -0.0028
     21 C         139.6117  139.7365  157.8363 C.ar    1  UNL1        0.0020
     22 C         139.1131  141.1223  158.1207 C.ar    1  UNL1        0.0296
     23 C         138.6032  141.4701  159.4878 C.ar    1  UNL1        0.1399
     24 F         138.1045  142.8559  159.7722 F       1  UNL1       -0.2042
     25 C         138.5919  140.4321  160.5705 C.ar    1  UNL1        0.0267
@<TRIPOS>BOND
     1     1     2    1
     2     2     3   ar
     3     3     4   ar
     4     4     5   ar
     5     5     6   ar
     6     6     7   ar
     7     7     8   ar
     8     8     9   ar
     9     9    10   ar
    10     7    11    1
    11    11    12    1
    12    12    13    1
    13    13    18    1
    14    18    19    1
    15    19    20   ar
    16    20    21   ar
    17    21    22   ar
    18    22    23   ar
    19    23    24    1
    20    23    25   ar
    21    13    14    1
    22    14    15    1
    23    10     2   ar
    24    25    19   ar
    25     9     4   ar
    26    15     6    1
    27     1    16    1
    28     1    17    1
@<TRIPOS>MOLECULE
*****
 25 28 0 0 0
SMALL
GASTEIGER

@<TRIPOS>ATOM
      1 N         143.7900  139.5761  171.4773 N.pl3   1  UNL1       -0.3375
      2 C         143.0293  140.0360  170.2691 C.ar    1  UNL1        0.1567
      3 N         143.4087  141.1743  169.3688 N.ar    1  UNL1       -0.2245
      4 C         142.3695  141.2802  168.2924 C.ar    1  UNL1        0.0889
      5 C         142.2216  142.2149  167.1286 C.ar    1  UNL1        0.0151
      6 C         141.0518  142.0769  166.1997 C.ar    1  UNL1       -0.0232
      7 C         140.0301  141.0042  166.4348 C.ar    1  UNL1       -0.0241
      8 C         140.1779  140.0695  167.5985 C.ar    1  UNL1        0.0035
      9 C         141.3477  140.2075  168.5274 C.ar    1  UNL1        0.0494
     10 S         141.7555  139.4386  169.7491 S.2     1  UNL1       -0.0520
     11 C         138.7982  140.6949  165.6367 C.3     1  UNL1        0.0434
     12 C         138.2839  141.3821  164.4064 C.3     1  UNL1        0.0771
     13 N         138.8744  142.5481  163.6706 N.3     1  UNL1       -0.2683
     14 C         140.1251  143.3151  163.9830 C.3     1  UNL1        0.0771
     15 C         141.0941  143.1053  165.1086 C.3     1  UNL1        0.0434
     16 H         144.6204  140.0348  171.7402 H       1  UNL1        0.1442
     17 H         143.4588  138.8154  172.0073 H       1  UNL1        0.1442
     18 C         138.1137  143.0081  162.4624 C.3     1  UNL1        0.0992
     19 C         138.6241  142.6892  161.0884 C.ar    1  UNL1       -0.0039
     20 C         139.4797  143.6809  160.3572 C.ar    1  UNL1       -0.0028
     21 C         139.9901  143.3621  158.9833 C.ar    1  UNL1        0.0020
     22 C         139.6449  142.0515  158.3404 C.ar    1  UNL1        0.0296
     23 C         138.7893  141.0598  159.0715 C.ar    1  UNL1        0.1399
     24 F         138.4441  139.7492  158.4286 F       1  UNL1       -0.2042
     25 C         138.2789  141.3786  160.4455 C.ar    1  UNL1        0.0267
@<TRIPOS>BOND
     1     1     2    1
     2     2     3   ar
     3     3     4   ar
     4     4     5   ar
     5     5     6   ar
     6     6     7   ar
     7     7     8   ar
     8     8     9   ar
     9     9    10   ar
    10     7    11    1
    11    11    12    1
    12    12    13    1
    13    13    18    1
    14    18    19    1
    15    19    20   ar
    16    20    21   ar
    17    21    22   ar
    18    22    23   ar
    19    23    24    1
    20    23    25   ar
    21    13    14    1
    22    14    15    1
    23    10     2   ar
    24    25    19   ar
    25     9     4   ar
    26    15     6    1
    27     1    16    1
    28     1    17    1
@<TRIPOS>MOLECULE
*****
 25 28 0 0 0
SMALL
GASTEIGER

@<TRIPOS>ATOM
      1 N         140.3367  142.4936  171.5720 N.pl3   1  UNL1       -0.3375
      2 C         140.2310  141.8925  170.2017 C.ar    1  UNL1        0.1567
      3 N         140.9350  142.3779  168.9693 N.ar    1  UNL1       -0.2245
      4 C         140.5418  141.4859  167.8293 C.ar    1  UNL1        0.0889
      5 C         140.9238  141.4837  166.3787 C.ar    1  UNL1        0.0151
      6 C         140.3587  140.4447  165.4560 C.ar    1  UNL1       -0.0232
      7 C         139.4118  139.4081  165.9838 C.ar    1  UNL1       -0.0241
      8 C         139.0299  139.4103  167.4343 C.ar    1  UNL1        0.0035
      9 C         139.5949  140.4492  168.3571 C.ar    1  UNL1        0.0494
     10 S         139.4028  140.7005  169.8234 S.2     1  UNL1       -0.0520
     11 C         138.7387  138.2918  165.2416 C.3     1  UNL1        0.0434
     12 C         138.8464  137.9364  163.7882 C.3     1  UNL1        0.0771
     13 N         139.6537  138.6096  162.7182 N.3     1  UNL1       -0.2683
     14 C         140.5528  139.8045  162.8372 C.3     1  UNL1        0.0771
     15 C         140.8665  140.6212  164.0556 C.3     1  UNL1        0.0434
     16 H         140.9097  143.2801  171.7216 H       1  UNL1        0.1442
     17 H         139.8332  142.1016  172.3217 H       1  UNL1        0.1442
     18 C         139.5480  138.0085  161.3480 C.3     1  UNL1        0.0992
     19 C         139.4027  138.8972  160.1483 C.ar    1  UNL1       -0.0039
     20 C         138.1661  139.7287  159.9762 C.ar    1  UNL1       -0.0028
     21 C         138.0207  140.6172  158.7766 C.ar    1  UNL1        0.0020
     22 C         139.1119  140.6744  157.7490 C.ar    1  UNL1        0.0296
     23 C         140.3485  139.8430  157.9210 C.ar    1  UNL1        0.1399
     24 F         141.4397  139.9002  156.8934 F       1  UNL1       -0.2042
     25 C         140.4939  138.9544  159.1206 C.ar    1  UNL1        0.0267
@<TRIPOS>BOND
     1     1     2    1
     2     2     3   ar
     3     3     4   ar
     4     4     5   ar
     5     5     6   ar
     6     6     7   ar
     7     7     8   ar
     8     8     9   ar
     9     9    10   ar
    10     7    11    1
    11    11    12    1
    12    12    13    1
    13    13    18    1
    14    18    19    1
    15    19    20   ar
    16    20    21   ar
    17    21    22   ar
    18    22    23   ar
    19    23    24    1
    20    23    25   ar
    21    13    14    1
    22    14    15    1
    23    10     2   ar
    24    25    19   ar
    25     9     4   ar
    26    15     6    1
    27     1    16    1
    28     1    17    1
@<TRIPOS>MOLECULE
*****
 25 28 0 0 0
SMALL
GASTEIGER

@<TRIPOS>ATOM
      1 N         137.1465  140.6598  156.8744 N.pl3   1  UNL1       -0.3375
      2 C         137.7569  140.6277  158.2442 C.ar    1  UNL1        0.1567
      3 N         137.2323  139.8667  159.4257 N.ar    1  UNL1       -0.2245
      4 C         138.1503  140.1197  160.5847 C.ar    1  UNL1        0.0889
      5 C         138.1329  139.6333  162.0036 C.ar    1  UNL1        0.0151
      6 C         139.2076  140.0642  162.9573 C.ar    1  UNL1       -0.0232
      7 C         140.2993  140.9815  162.4922 C.ar    1  UNL1       -0.0241
      8 C         140.3167  141.4679  161.0734 C.ar    1  UNL1        0.0035
      9 C         139.2422  141.0371  160.1196 C.ar    1  UNL1        0.0494
     10 S         138.9990  141.3510  158.6731 S.2     1  UNL1       -0.0520
     11 C         141.4574  141.5284  163.2732 C.3     1  UNL1        0.0434
     12 C         141.8095  141.2930  164.7122 C.3     1  UNL1        0.0771
     13 N         141.0906  140.4527  165.7255 N.3     1  UNL1       -0.2683
     14 C         139.8420  139.6401  165.5502 C.3     1  UNL1        0.0771
     15 C         139.0040  139.4672  164.3182 C.3     1  UNL1        0.0434
     16 H         136.3255  140.1489  156.6892 H       1  UNL1        0.1442
     17 H         137.5668  141.1917  156.1605 H       1  UNL1        0.1442
     18 C         141.7010  140.4206  167.0953 C.3     1  UNL1        0.0992
     19 C         140.9955  141.0744  168.2463 C.ar    1  UNL1       -0.0039
     20 C         140.0713  140.2717  169.1132 C.ar    1  UNL1       -0.0028
     21 C         139.3658  140.9254  170.2642 C.ar    1  UNL1        0.0020
     22 C         139.5845  142.3819  170.5484 C.ar    1  UNL1        0.0296
     23 C         140.5088  143.1847  169.6815 C.ar    1  UNL1        0.1399
     24 F         140.7275  144.6412  169.9657 F       1  UNL1       -0.2042
     25 C         141.2143  142.5310  168.5305 C.ar    1  UNL1        0.0267
@<TRIPOS>BOND
     1     1     2    1
     2     2     3   ar
     3     3     4   ar
     4     4     5   ar
     5     5     6   ar
     6     6     7   ar
     7     7     8   ar
     8     8     9   ar
     9     9    10   ar
    10     7    11    1
    11    11    12    1
    12    12    13    1
    13    13    18    1
    14    18    19    1
    15    19    20   ar
    16    20    21   ar
    17    21    22   ar
    18    22    23   ar
    19    23    24    1
    20    23    25   ar
    21    13    14    1
    22    14    15    1
    23    10     2   ar
    24    25    19   ar
    25     9     4   ar
    26    15     6    1
    27     1    16    1
    28     1    17    1
@<TRIPOS>MOLECULE
*****
 25 28 0 0 0
SMALL
GASTEIGER

@<TRIPOS>ATOM
      1 N         138.3048  141.4147  155.9003 N.pl3   1  UNL1       -0.3375
      2 C         138.3601  141.1577  157.3771 C.ar    1  UNL1        0.1567
      3 N         138.4607  139.8135  158.0350 N.ar    1  UNL1       -0.2245
      4 C         138.4873  140.0249  159.5198 C.ar    1  UNL1        0.0889
      5 C         138.5773  139.0649  160.6688 C.ar    1  UNL1        0.0151
      6 C         138.5832  139.5799  162.0777 C.ar    1  UNL1       -0.0232
      7 C         138.4991  141.0547  162.3374 C.ar    1  UNL1       -0.0241
      8 C         138.4091  142.0148  161.1884 C.ar    1  UNL1        0.0035
      9 C         138.4032  141.4998  159.7796 C.ar    1  UNL1        0.0494
     10 S         138.3246  142.1999  158.4553 S.2     1  UNL1       -0.0520
     11 C         138.4899  141.7735  163.6540 C.3     1  UNL1        0.0434
     12 C         138.5625  141.1948  165.0360 C.3     1  UNL1        0.0771
     13 N         138.6623  139.7545  165.4426 N.3     1  UNL1       -0.2683
     14 C         138.7141  138.5370  164.5679 C.3     1  UNL1        0.0771
     15 C         138.6789  138.4593  163.0703 C.3     1  UNL1        0.0434
     16 H         138.3344  140.6607  155.2680 H       1  UNL1        0.1442
     17 H         138.2388  142.3374  155.5633 H       1  UNL1        0.1442
     18 C         138.7177  139.4975  166.9194 C.3     1  UNL1        0.0992
     19 C         139.9778  139.7789  167.6831 C.ar    1  UNL1       -0.0039
     20 C         141.3077  139.6881  166.9951 C.ar    1  UNL1       -0.0028
     21 C         142.5678  139.9695  167.7586 C.ar    1  UNL1        0.0020
     22 C         142.4980  140.3416  169.2101 C.ar    1  UNL1        0.0296
     23 C         141.1681  140.4323  169.8980 C.ar    1  UNL1        0.1399
     24 F         141.0983  140.8044  171.3495 F       1  UNL1       -0.2042
     25 C         139.9080  140.1510  169.1345 C.ar    1  UNL1        0.0267
@<TRIPOS>BOND
     1     1     2    1
     2     2     3   ar
     3     3     4   ar
     4     4     5   ar
     5     5     6   ar
     6     6     7   ar
     7     7     8   ar
     8     8     9   ar
     9     9    10   ar
    10     7    11    1
    11    11    12    1
    12    12    13    1
    13    13    18    1
    14    18    19    1
    15    19    20   ar
    16    20    21   ar
    17    21    22   ar
    18    22    23   ar
    19    23    24    1
    20    23    25   ar
    21    13    14    1
    22    14    15    1
    23    10     2   ar
    24    25    19   ar
    25     9     4   ar
    26    15     6    1
    27     1    16    1
    28     1    17    1
@<TRIPOS>MOLECULE
*****
 25 28 0 0 0
SMALL
GASTEIGER

@<TRIPOS>ATOM
      1 N         140.3156  142.5024  171.4820 N.pl3   1  UNL1       -0.3375
      2 C         140.1567  141.9220  170.1079 C.ar    1  UNL1        0.1567
      3 N         139.5177  140.6064  169.7750 N.ar    1  UNL1       -0.2245
      4 C         139.5751  140.4267  168.2869 C.ar    1  UNL1        0.0889
      5 C         139.1003  139.3217  167.3904 C.ar    1  UNL1        0.0151
      6 C         139.3000  139.4214  165.9070 C.ar    1  UNL1       -0.0232
      7 C         139.9744  140.6258  165.3203 C.ar    1  UNL1       -0.0241
      8 C         140.4492  141.7307  166.2168 C.ar    1  UNL1        0.0035
      9 C         140.2496  141.6311  167.7001 C.ar    1  UNL1        0.0494
     10 S         140.6091  142.5553  168.8256 S.2     1  UNL1       -0.0520
     11 C         140.2708  140.9231  163.8802 C.3     1  UNL1        0.0434
     12 C         139.9658  140.0891  162.6712 C.3     1  UNL1        0.0771
     13 N         139.2893  138.7522  162.6037 N.3     1  UNL1       -0.2683
     14 C         138.7505  137.9188  163.7285 C.3     1  UNL1        0.0771
     15 C         138.7552  138.2166  165.1986 C.3     1  UNL1        0.0434
     16 H         139.9843  142.0083  172.2664 H       1  UNL1        0.1442
     17 H         140.7511  143.3775  171.5993 H       1  UNL1        0.1442
     18 C         139.1304  138.1718  161.2297 C.3     1  UNL1        0.0992
     19 C         139.8031  138.8233  160.0579 C.ar    1  UNL1       -0.0039
     20 C         139.0127  139.6981  159.1305 C.ar    1  UNL1       -0.0028
     21 C         139.6853  140.3496  157.9587 C.ar    1  UNL1        0.0020
     22 C         141.1483  140.1263  157.7142 C.ar    1  UNL1        0.0296
     23 C         141.9387  139.2514  158.6416 C.ar    1  UNL1        0.1399
     24 F         143.4017  139.0280  158.3971 F       1  UNL1       -0.2042
     25 C         141.2661  138.5999  159.8134 C.ar    1  UNL1        0.0267
@<TRIPOS>BOND
     1     1     2    1
     2     2     3   ar
     3     3     4   ar
     4     4     5   ar
     5     5     6   ar
     6     6     7   ar
     7     7     8   ar
     8     8     9   ar
     9     9    10   ar
    10     7    11    1
    11    11    12    1
    12    12    13    1
    13    13    18    1
    14    18    19    1
    15    19    20   ar
    16    20    21   ar
    17    21    22   ar
    18    22    23   ar
    19    23    24    1
    20    23    25   ar
    21    13    14    1
    22    14    15    1
    23    10     2   ar
    24    25    19   ar
    25     9     4   ar
    26    15     6    1
    27     1    16    1
    28     1    17    1
