@<TRIPOS>MOLECULE
*****
 43 46 0 0 0
SMALL
GASTEIGER

@<TRIPOS>ATOM
      1 C         142.8153  141.2958  167.2535 C.ar    1  UNL1        0.1599
      2 C         142.9076  142.4008  168.2638 C.ar    1  UNL1        0.0397
      3 C         142.3038  142.2244  169.6254 C.ar    1  UNL1        0.0146
      4 C         141.6076  140.9431  169.9769 C.ar    1  UNL1        0.0591
      5 CL        141.0038  140.7667  171.3386 Cl      1  UNL1       -0.0822
      6 C         141.5153  139.8381  168.9668 C.ar    1  UNL1        0.0303
      7 C         142.1192  140.0145  167.6050 C.ar    1  UNL1        0.1000
      8 N         142.0269  138.9095  166.5948 N.pl3   1  UNL1       -0.2120
      9 H         142.5944  138.1103  166.6863 H       1  UNL1        0.1738
     10 S         141.0699  139.0223  165.4452 S.O2    1  UNL1        0.0737
     11 O         139.9677  139.3795  166.3978 O.2     1  UNL1       -0.1499
     12 O         142.1722  138.6651  164.4926 O.2     1  UNL1       -0.1499
     13 C         140.1130  139.1351  164.2957 C.ar    1  UNL1        0.1252
     14 C         139.6897  137.9051  163.5487 C.ar    1  UNL1        0.0210
     15 C         138.7328  138.0179  162.3991 C.ar    1  UNL1        0.0127
     16 C         138.1991  139.3606  161.9965 C.ar    1  UNL1        0.0616
     17 CL        137.2421  139.4734  160.8469 Cl      1  UNL1       -0.0823
     18 C         138.6223  140.5907  162.7435 C.ar    1  UNL1        0.0833
     19 C         139.5792  140.4779  163.8931 C.ar    1  UNL1        0.0249
     20 C         138.0886  141.9334  162.3409 C.3     1  UNL1        0.4194
     21 F         137.5548  143.2761  161.9383 F       1  UNL1       -0.1658
     22 F         137.0408  141.8375  163.4099 F       1  UNL1       -0.1658
     23 F         139.1363  142.0293  161.2718 F       1  UNL1       -0.1658
     24 O         143.4192  141.4722  165.8918 O.3     1  UNL1       -0.4491
     25 C         143.1581  142.2624  163.4306 C.ar    1  UNL1        0.1731
     26 C         142.4588  143.1023  162.4032 C.ar    1  UNL1        0.0446
     27 C         141.3213  143.9917  162.8094 C.ar    1  UNL1        0.0566
     28 C         140.8831  144.0413  164.2431 C.ar    1  UNL1        0.0078
     29 C         141.5824  143.2014  165.2705 C.ar    1  UNL1        0.0408
     30 C         142.7199  142.3120  164.8643 C.ar    1  UNL1        0.1790
     31 C         140.6220  144.8315  161.7819 C.2     1  UNL1        0.2460
     32 O         139.5014  145.7402  162.1923 O.2     1  UNL1       -0.2701
     33 N         141.0434  144.7626  160.3439 N.am    1  UNL1       -0.2994
     34 H         141.7789  144.1662  160.0746 H       1  UNL1        0.1498
     35 C         140.3442  145.6024  159.3164 C.3     1  UNL1        0.1070
     36 C         140.8141  145.5905  157.8920 C.3     1  UNL1        0.0936
     37 N         139.8258  145.7491  156.7748 N.3     1  UNL1       -0.2712
     38 C         139.3942  147.0460  156.1570 C.3     1  UNL1        0.0722
     39 C         138.3972  146.7371  155.0797 C.3     1  UNL1        0.0188
     40 C         138.2127  145.2492  155.0317 C.3     1  UNL1        0.0188
     41 C         139.0956  144.6386  156.0794 C.3     1  UNL1        0.0722
     42 C         145.7101  141.7969  163.2878 C.3     1  UNL1        0.2526
     43 O         144.2956  141.3730  163.0244 O.3     1  UNL1       -0.4683
@<TRIPOS>BOND
     1    42    43    1
     2    43    25    1
     3    25    26   ar
     4    26    27   ar
     5    27    31    1
     6    31    32    2
     7    31    33   am
     8    33    35    1
     9    35    36    1
    10    36    37    1
    11    37    38    1
    12    38    39    1
    13    39    40    1
    14    40    41    1
    15    27    28   ar
    16    28    29   ar
    17    29    30   ar
    18    30    24    1
    19    24     1    1
    20     1     2   ar
    21     2     3   ar
    22     3     4   ar
    23     4     5    1
    24     4     6   ar
    25     6     7   ar
    26     7     8    1
    27     8    10    1
    28    10    11    2
    29    10    12    2
    30    10    13    1
    31    13    14   ar
    32    14    15   ar
    33    15    16   ar
    34    16    17    1
    35    16    18   ar
    36    18    20    1
    37    20    21    1
    38    20    22    1
    39    20    23    1
    40    18    19   ar
    41    30    25   ar
    42     7     1   ar
    43    19    13   ar
    44    41    37    1
    45    33    34    1
    46     8     9    1
@<TRIPOS>MOLECULE
*****
 43 46 0 0 0
SMALL
GASTEIGER

@<TRIPOS>ATOM
      1 C         140.8617  143.5960  157.9146 C.ar    1  UNL1        0.1599
      2 C         139.9716  143.2328  156.7631 C.ar    1  UNL1        0.0397
      3 C         139.2293  144.3049  156.0217 C.ar    1  UNL1        0.0146
      4 C         139.3772  145.7402  156.4317 C.ar    1  UNL1        0.0591
      5 CL        138.6350  146.8123  155.6904 Cl      1  UNL1       -0.0822
      6 C         140.2673  146.1034  157.5831 C.ar    1  UNL1        0.0303
      7 C         141.0096  145.0313  158.3246 C.ar    1  UNL1        0.1000
      8 N         141.8998  145.3945  159.4759 N.pl3   1  UNL1       -0.2120
      9 H         142.6957  145.9540  159.3254 H       1  UNL1        0.1738
     10 S         141.5772  144.9052  160.8567 S.O2    1  UNL1        0.0737
     11 O         140.1958  145.4774  160.7368 O.2     1  UNL1       -0.1499
     12 O         142.9586  144.3331  160.9766 O.2     1  UNL1       -0.1499
     13 C         141.2547  144.4160  162.2375 C.ar    1  UNL1        0.1252
     14 C         142.3032  143.7137  163.0483 C.ar    1  UNL1        0.0210
     15 C         141.9806  143.2244  164.4291 C.ar    1  UNL1        0.0127
     16 C         140.6096  143.4374  164.9991 C.ar    1  UNL1        0.0616
     17 CL        140.2871  142.9481  166.3799 Cl      1  UNL1       -0.0823
     18 C         139.5611  144.1397  164.1883 C.ar    1  UNL1        0.0833
     19 C         139.8836  144.6290  162.8075 C.ar    1  UNL1        0.0249
     20 C         138.1901  144.3528  164.7583 C.3     1  UNL1        0.4194
     21 F         136.8191  144.5658  165.3283 F       1  UNL1       -0.1658
     22 F         137.6614  143.2401  163.9024 F       1  UNL1       -0.1658
     23 F         138.7188  145.4654  165.6141 F       1  UNL1       -0.1658
     24 O         141.6040  142.5239  158.6559 O.3     1  UNL1       -0.4491
     25 C         141.7541  140.9215  160.6955 C.ar    1  UNL1        0.1731
     26 C         141.0927  140.2006  161.8325 C.ar    1  UNL1        0.0446
     27 C         139.6198  140.3612  162.0670 C.ar    1  UNL1        0.0566
     28 C         138.8084  141.2426  161.1645 C.ar    1  UNL1        0.0078
     29 C         139.4698  141.9635  160.0275 C.ar    1  UNL1        0.0408
     30 C         140.9426  141.8030  159.7930 C.ar    1  UNL1        0.1790
     31 C         138.9585  139.6402  163.2041 C.2     1  UNL1        0.2460
     32 O         138.4045  138.2617  162.9973 O.2     1  UNL1       -0.2701
     33 N         138.8511  140.2978  164.5480 N.am    1  UNL1       -0.2994
     34 H         139.2147  141.2026  164.6837 H       1  UNL1        0.1498
     35 C         138.1898  139.5769  165.6850 C.3     1  UNL1        0.1070
     36 C         138.8786  139.4806  167.0140 C.3     1  UNL1        0.0936
     37 N         140.3742  139.5671  167.0916 N.3     1  UNL1       -0.2712
     38 C         141.1681  140.0899  168.2520 C.3     1  UNL1        0.0722
     39 C         142.6229  139.9919  167.9000 C.3     1  UNL1        0.0188
     40 C         142.7281  139.4084  166.5220 C.3     1  UNL1        0.0188
     41 C         141.3383  139.1459  166.0224 C.3     1  UNL1        0.0722
     42 C         143.7199  139.8089  159.4120 C.3     1  UNL1        0.2526
     43 O         143.2269  140.7610  160.4610 O.3     1  UNL1       -0.4683
@<TRIPOS>BOND
     1    42    43    1
     2    43    25    1
     3    25    26   ar
     4    26    27   ar
     5    27    31    1
     6    31    32    2
     7    31    33   am
     8    33    35    1
     9    35    36    1
    10    36    37    1
    11    37    38    1
    12    38    39    1
    13    39    40    1
    14    40    41    1
    15    27    28   ar
    16    28    29   ar
    17    29    30   ar
    18    30    24    1
    19    24     1    1
    20     1     2   ar
    21     2     3   ar
    22     3     4   ar
    23     4     5    1
    24     4     6   ar
    25     6     7   ar
    26     7     8    1
    27     8    10    1
    28    10    11    2
    29    10    12    2
    30    10    13    1
    31    13    14   ar
    32    14    15   ar
    33    15    16   ar
    34    16    17    1
    35    16    18   ar
    36    18    20    1
    37    20    21    1
    38    20    22    1
    39    20    23    1
    40    18    19   ar
    41    30    25   ar
    42     7     1   ar
    43    19    13   ar
    44    41    37    1
    45    33    34    1
    46     8     9    1
@<TRIPOS>MOLECULE
*****
 43 46 0 0 0
SMALL
GASTEIGER

@<TRIPOS>ATOM
      1 C         140.4453  144.4062  159.7901 C.ar    1  UNL1        0.1599
      2 C         141.6713  144.9384  159.1091 C.ar    1  UNL1        0.0397
      3 C         141.9690  144.5514  157.6908 C.ar    1  UNL1        0.0146
      4 C         141.0408  143.6323  156.9534 C.ar    1  UNL1        0.0591
      5 CL        141.3385  143.2454  155.5352 Cl      1  UNL1       -0.0822
      6 C         139.8148  143.1002  157.6344 C.ar    1  UNL1        0.0303
      7 C         139.5170  143.4871  159.0528 C.ar    1  UNL1        0.1000
      8 N         138.2911  142.9549  159.7338 N.pl3   1  UNL1       -0.2120
      9 H         137.3986  143.1637  159.3745 H       1  UNL1        0.1738
     10 S         138.4249  142.1045  160.9621 S.O2    1  UNL1        0.0737
     11 O         137.5424  143.0546  161.7161 O.2     1  UNL1       -0.1499
     12 O         139.3074  141.1543  160.2082 O.2     1  UNL1       -0.1499
     13 C         138.5587  141.2541  162.1905 C.ar    1  UNL1        0.1252
     14 C         137.8358  141.6345  163.4485 C.ar    1  UNL1        0.0210
     15 C         137.9696  140.7841  164.6769 C.ar    1  UNL1        0.0127
     16 C         138.8264  139.5533  164.6473 C.ar    1  UNL1        0.0616
     17 CL        138.9602  138.7029  165.8757 Cl      1  UNL1       -0.0823
     18 C         139.5494  139.1728  163.3892 C.ar    1  UNL1        0.0833
     19 C         139.4155  140.0232  162.1609 C.ar    1  UNL1        0.0249
     20 C         140.4061  137.9419  163.3596 C.3     1  UNL1        0.4194
     21 F         141.2629  136.7110  163.3300 F       1  UNL1       -0.1658
     22 F         139.1867  137.0986  163.1317 F       1  UNL1       -0.1658
     23 F         141.6255  138.7852  163.5875 F       1  UNL1       -0.1658
     24 O         140.1476  144.7931  161.2084 O.3     1  UNL1       -0.4491
     25 C         140.2477  144.1970  163.7352 C.ar    1  UNL1        0.1731
     26 C         140.8745  143.4381  164.8670 C.ar    1  UNL1        0.0446
     27 C         142.0281  142.5161  164.6038 C.ar    1  UNL1        0.0566
     28 C         142.5549  142.3532  163.2089 C.ar    1  UNL1        0.0078
     29 C         141.9280  143.1122  162.0771 C.ar    1  UNL1        0.0408
     30 C         140.7744  144.0341  162.3403 C.ar    1  UNL1        0.1790
     31 C         142.6550  141.7571  165.7357 C.2     1  UNL1        0.2460
     32 O         143.8081  142.3509  166.4892 O.2     1  UNL1       -0.2701
     33 N         142.1286  140.4044  166.1140 N.am    1  UNL1       -0.2994
     34 H         141.3718  140.0147  165.6195 H       1  UNL1        0.1498
     35 C         142.7554  139.6454  167.2458 C.3     1  UNL1        0.1070
     36 C         142.1553  139.7149  168.6188 C.3     1  UNL1        0.0936
     37 N         141.6563  141.0244  169.1538 N.3     1  UNL1       -0.2712
     38 C         142.5073  142.1730  169.6082 C.3     1  UNL1        0.0722
     39 C         141.5956  143.2737  170.0636 C.3     1  UNL1        0.0188
     40 C         140.1811  142.8054  169.8906 C.3     1  UNL1        0.0188
     41 C         140.2186  141.4152  169.3283 C.3     1  UNL1        0.0722
     42 C         138.3129  144.9979  165.2732 C.3     1  UNL1        0.2526
     43 O         139.0941  145.1190  163.9984 O.3     1  UNL1       -0.4683
@<TRIPOS>BOND
     1    42    43    1
     2    43    25    1
     3    25    26   ar
     4    26    27   ar
     5    27    31    1
     6    31    32    2
     7    31    33   am
     8    33    35    1
     9    35    36    1
    10    36    37    1
    11    37    38    1
    12    38    39    1
    13    39    40    1
    14    40    41    1
    15    27    28   ar
    16    28    29   ar
    17    29    30   ar
    18    30    24    1
    19    24     1    1
    20     1     2   ar
    21     2     3   ar
    22     3     4   ar
    23     4     5    1
    24     4     6   ar
    25     6     7   ar
    26     7     8    1
    27     8    10    1
    28    10    11    2
    29    10    12    2
    30    10    13    1
    31    13    14   ar
    32    14    15   ar
    33    15    16   ar
    34    16    17    1
    35    16    18   ar
    36    18    20    1
    37    20    21    1
    38    20    22    1
    39    20    23    1
    40    18    19   ar
    41    30    25   ar
    42     7     1   ar
    43    19    13   ar
    44    41    37    1
    45    33    34    1
    46     8     9    1
@<TRIPOS>MOLECULE
*****
 43 46 0 0 0
SMALL
GASTEIGER

@<TRIPOS>ATOM
      1 C         138.7058  142.3931  158.3232 C.ar    1  UNL1        0.1599
      2 C         139.4376  143.1704  157.2694 C.ar    1  UNL1        0.0397
      3 C         139.6053  142.5955  155.8942 C.ar    1  UNL1        0.0146
      4 C         139.0413  141.2432  155.5727 C.ar    1  UNL1        0.0591
      5 CL        139.2090  140.6683  154.1975 Cl      1  UNL1       -0.0822
      6 C         138.3095  140.4660  156.6264 C.ar    1  UNL1        0.0303
      7 C         138.1418  141.0409  158.0017 C.ar    1  UNL1        0.1000
      8 N         137.4101  140.2636  159.0554 N.pl3   1  UNL1       -0.2120
      9 H         136.4332  140.1557  158.9982 H       1  UNL1        0.1738
     10 S         138.1667  139.6507  160.1964 S.O2    1  UNL1        0.0737
     11 O         137.1494  140.1871  161.1593 O.2     1  UNL1       -0.1499
     12 O         139.1841  139.1142  159.2335 O.2     1  UNL1       -0.1499
     13 C         138.9234  139.0377  161.3373 C.ar    1  UNL1        0.1252
     14 C         140.2524  138.3869  161.0923 C.ar    1  UNL1        0.0210
     15 C         141.0090  137.7739  162.2333 C.ar    1  UNL1        0.0127
     16 C         140.4367  137.8119  163.6192 C.ar    1  UNL1        0.0616
     17 CL        141.1933  137.1989  164.7602 Cl      1  UNL1       -0.0823
     18 C         139.1076  138.4628  163.8643 C.ar    1  UNL1        0.0833
     19 C         138.3510  139.0757  162.7233 C.ar    1  UNL1        0.0249
     20 C         138.5353  138.5007  165.2503 C.3     1  UNL1        0.4194
     21 F         137.9629  138.5386  166.6362 F       1  UNL1       -0.1658
     22 F         138.7114  139.9899  165.2822 F       1  UNL1       -0.1658
     23 F         138.3591  137.0114  165.2183 F       1  UNL1       -0.1658
     24 O         138.5381  142.9681  159.6984 O.3     1  UNL1       -0.4491
     25 C         139.0908  142.7429  162.2271 C.ar    1  UNL1        0.1731
     26 C         140.0477  142.3666  163.3191 C.ar    1  UNL1        0.0446
     27 C         141.4089  141.8390  162.9746 C.ar    1  UNL1        0.0566
     28 C         141.8132  141.6878  161.5381 C.ar    1  UNL1        0.0078
     29 C         140.8563  142.0641  160.4461 C.ar    1  UNL1        0.0408
     30 C         139.4951  142.5917  160.7905 C.ar    1  UNL1        0.1790
     31 C         142.3659  141.4626  164.0667 C.2     1  UNL1        0.2460
     32 O         143.8446  141.5640  163.8361 O.2     1  UNL1       -0.2701
     33 N         141.8441  140.9849  165.3894 N.am    1  UNL1       -0.2994
     34 H         140.8736  140.9184  165.5407 H       1  UNL1        0.1498
     35 C         142.8010  140.6085  166.4815 C.3     1  UNL1        0.1070
     36 C         142.4284  139.5451  167.4716 C.3     1  UNL1        0.0936
     37 N         141.4013  139.8297  168.5271 N.3     1  UNL1       -0.2712
     38 C         140.0086  140.3334  168.2890 C.3     1  UNL1        0.0722
     39 C         139.3331  140.4755  169.6207 C.3     1  UNL1        0.0188
     40 C         140.3084  140.0597  170.6819 C.3     1  UNL1        0.0188
     41 C         141.5866  139.6605  170.0059 C.3     1  UNL1        0.0722
     42 C         137.5557  144.1878  163.7455 C.3     1  UNL1        0.2526
     43 O         137.7295  143.2705  162.5715 O.3     1  UNL1       -0.4683
@<TRIPOS>BOND
     1    42    43    1
     2    43    25    1
     3    25    26   ar
     4    26    27   ar
     5    27    31    1
     6    31    32    2
     7    31    33   am
     8    33    35    1
     9    35    36    1
    10    36    37    1
    11    37    38    1
    12    38    39    1
    13    39    40    1
    14    40    41    1
    15    27    28   ar
    16    28    29   ar
    17    29    30   ar
    18    30    24    1
    19    24     1    1
    20     1     2   ar
    21     2     3   ar
    22     3     4   ar
    23     4     5    1
    24     4     6   ar
    25     6     7   ar
    26     7     8    1
    27     8    10    1
    28    10    11    2
    29    10    12    2
    30    10    13    1
    31    13    14   ar
    32    14    15   ar
    33    15    16   ar
    34    16    17    1
    35    16    18   ar
    36    18    20    1
    37    20    21    1
    38    20    22    1
    39    20    23    1
    40    18    19   ar
    41    30    25   ar
    42     7     1   ar
    43    19    13   ar
    44    41    37    1
    45    33    34    1
    46     8     9    1
@<TRIPOS>MOLECULE
*****
 43 46 0 0 0
SMALL
GASTEIGER

@<TRIPOS>ATOM
      1 C         140.4441  143.7979  157.1592 C.ar    1  UNL1        0.1599
      2 C         139.4939  143.4989  156.0376 C.ar    1  UNL1        0.0397
      3 C         138.7864  144.6196  155.3352 C.ar    1  UNL1        0.0146
      4 C         139.0290  146.0393  155.7543 C.ar    1  UNL1        0.0591
      5 CL        138.3215  147.1600  155.0519 Cl      1  UNL1       -0.0822
      6 C         139.9792  146.3383  156.8758 C.ar    1  UNL1        0.0303
      7 C         140.6868  145.2176  157.5782 C.ar    1  UNL1        0.1000
      8 N         141.6369  145.5165  158.6997 N.pl3   1  UNL1       -0.2120
      9 H         142.4947  145.9620  158.5126 H       1  UNL1        0.1738
     10 S         141.2802  145.1369  160.1063 S.O2    1  UNL1        0.0737
     11 O         139.9303  145.7679  159.9343 O.2     1  UNL1       -0.1499
     12 O         142.6301  144.5058  160.2783 O.2     1  UNL1       -0.1499
     13 C         140.9235  144.7572  161.5129 C.ar    1  UNL1        0.1252
     14 C         139.5825  145.1286  162.0729 C.ar    1  UNL1        0.0210
     15 C         139.2257  144.7489  163.4795 C.ar    1  UNL1        0.0127
     16 C         140.2101  143.9978  164.3262 C.ar    1  UNL1        0.0616
     17 CL        139.8533  143.6181  165.7328 Cl      1  UNL1       -0.0823
     18 C         141.5512  143.6263  163.7662 C.ar    1  UNL1        0.0833
     19 C         141.9079  144.0060  162.3596 C.ar    1  UNL1        0.0249
     20 C         142.5355  142.8752  164.6129 C.3     1  UNL1        0.4194
     21 F         143.5198  142.1240  165.4595 F       1  UNL1       -0.1658
     22 F         143.2245  144.1630  164.9544 F       1  UNL1       -0.1658
     23 F         141.8465  141.5873  164.2714 F       1  UNL1       -0.1658
     24 O         141.1516  142.6772  157.8616 O.3     1  UNL1       -0.4491
     25 C         141.3531  141.1565  159.9585 C.ar    1  UNL1        0.1731
     26 C         140.7291  140.5123  161.1608 C.ar    1  UNL1        0.0446
     27 C         139.2795  140.7446  161.4685 C.ar    1  UNL1        0.0566
     28 C         138.4540  141.6211  160.5740 C.ar    1  UNL1        0.0078
     29 C         139.0780  142.2652  159.3717 C.ar    1  UNL1        0.0408
     30 C         140.5276  142.0329  159.0640 C.ar    1  UNL1        0.1790
     31 C         138.6555  140.1003  162.6709 C.2     1  UNL1        0.2460
     32 O         137.9091  138.8073  162.5264 O.2     1  UNL1       -0.2701
     33 N         138.7778  140.7492  164.0178 N.am    1  UNL1       -0.2994
     34 H         139.2677  141.5979  164.1126 H       1  UNL1        0.1498
     35 C         138.1539  140.1051  165.2201 C.3     1  UNL1        0.1070
     36 C         138.8643  138.9885  165.9262 C.3     1  UNL1        0.0936
     37 N         140.3615  138.9065  165.8836 N.3     1  UNL1       -0.2712
     38 C         141.1747  138.1513  164.8745 C.3     1  UNL1        0.0722
     39 C         142.6241  138.3434  165.2098 C.3     1  UNL1        0.0188
     40 C         142.7066  139.2174  166.4261 C.3     1  UNL1        0.0188
     41 C         141.3081  139.5654  166.8426 C.3     1  UNL1        0.0722
     42 C         143.8458  141.2149  160.6887 C.3     1  UNL1        0.2526
     43 O         142.8027  140.9241  159.6507 O.3     1  UNL1       -0.4683
@<TRIPOS>BOND
     1    42    43    1
     2    43    25    1
     3    25    26   ar
     4    26    27   ar
     5    27    31    1
     6    31    32    2
     7    31    33   am
     8    33    35    1
     9    35    36    1
    10    36    37    1
    11    37    38    1
    12    38    39    1
    13    39    40    1
    14    40    41    1
    15    27    28   ar
    16    28    29   ar
    17    29    30   ar
    18    30    24    1
    19    24     1    1
    20     1     2   ar
    21     2     3   ar
    22     3     4   ar
    23     4     5    1
    24     4     6   ar
    25     6     7   ar
    26     7     8    1
    27     8    10    1
    28    10    11    2
    29    10    12    2
    30    10    13    1
    31    13    14   ar
    32    14    15   ar
    33    15    16   ar
    34    16    17    1
    35    16    18   ar
    36    18    20    1
    37    20    21    1
    38    20    22    1
    39    20    23    1
    40    18    19   ar
    41    30    25   ar
    42     7     1   ar
    43    19    13   ar
    44    41    37    1
    45    33    34    1
    46     8     9    1
@<TRIPOS>MOLECULE
*****
 43 46 0 0 0
SMALL
GASTEIGER

@<TRIPOS>ATOM
      1 C         140.2015  145.0108  159.2174 C.ar    1  UNL1        0.1599
      2 C         141.1243  145.8719  158.4066 C.ar    1  UNL1        0.0397
      3 C         141.4731  145.4812  157.0010 C.ar    1  UNL1        0.0146
      4 C         140.8992  144.2295  156.4061 C.ar    1  UNL1        0.0591
      5 CL        141.2479  143.8389  155.0006 Cl      1  UNL1       -0.0822
      6 C         139.9765  143.3685  157.2168 C.ar    1  UNL1        0.0303
      7 C         139.6276  143.7591  158.6224 C.ar    1  UNL1        0.1000
      8 N         138.7049  142.8981  159.4331 N.pl3   1  UNL1       -0.2120
      9 H         137.7463  142.8597  159.2121 H       1  UNL1        0.1738
     10 S         139.2427  142.0955  160.5805 S.O2    1  UNL1        0.0737
     11 O         137.9742  142.3366  161.3438 O.2     1  UNL1       -0.1499
     12 O         140.5113  141.8543  159.8172 O.2     1  UNL1       -0.1499
     13 C         139.7806  141.2929  161.7279 C.ar    1  UNL1        0.1252
     14 C         141.2186  140.8666  161.7362 C.ar    1  UNL1        0.0210
     15 C         141.7565  140.0640  162.8836 C.ar    1  UNL1        0.0127
     16 C         140.8562  139.6877  164.0228 C.ar    1  UNL1        0.0616
     17 CL        141.3940  138.8851  165.1702 Cl      1  UNL1       -0.0823
     18 C         139.4180  140.1139  164.0146 C.ar    1  UNL1        0.0833
     19 C         138.8802  140.9165  162.8672 C.ar    1  UNL1        0.0249
     20 C         138.5177  139.7376  165.1538 C.3     1  UNL1        0.4194
     21 F         137.6174  139.3613  166.2930 F       1  UNL1       -0.1658
     22 F         138.7190  141.0943  165.7610 F       1  UNL1       -0.1658
     23 F         138.3164  138.3809  164.5465 F       1  UNL1       -0.1658
     24 O         139.8527  145.4015  160.6229 O.3     1  UNL1       -0.4491
     25 C         139.9858  144.6258  163.0990 C.ar    1  UNL1        0.1731
     26 C         140.7800  144.0795  164.2482 C.ar    1  UNL1        0.0446
     27 C         142.2354  143.7627  164.0707 C.ar    1  UNL1        0.0566
     28 C         142.8966  143.9921  162.7440 C.ar    1  UNL1        0.0078
     29 C         142.1023  144.5384  161.5948 C.ar    1  UNL1        0.0408
     30 C         140.6470  144.8552  161.7723 C.ar    1  UNL1        0.1790
     31 C         143.0296  143.2164  165.2200 C.2     1  UNL1        0.2460
     32 O         144.4484  143.6566  165.4277 O.2     1  UNL1       -0.2701
     33 N         142.4050  142.2299  166.1616 N.am    1  UNL1       -0.2994
     34 H         141.4737  141.9410  166.0253 H       1  UNL1        0.1498
     35 C         143.1991  141.6836  167.3109 C.3     1  UNL1        0.1070
     36 C         142.8167  142.0309  168.7191 C.3     1  UNL1        0.0936
     37 N         141.6045  141.4053  169.3431 N.3     1  UNL1       -0.2712
     38 C         141.6060  140.3033  170.3607 C.3     1  UNL1        0.0722
     39 C         140.1804  139.9888  170.7055 C.3     1  UNL1        0.0188
     40 C         139.2978  140.8964  169.9009 C.3     1  UNL1        0.0188
     41 C         140.1780  141.7719  169.0589 C.3     1  UNL1        0.0722
     42 C         137.7404  144.2607  164.3538 C.3     1  UNL1        0.2526
     43 O         138.5304  144.9426  163.2764 O.3     1  UNL1       -0.4683
@<TRIPOS>BOND
     1    42    43    1
     2    43    25    1
     3    25    26   ar
     4    26    27   ar
     5    27    31    1
     6    31    32    2
     7    31    33   am
     8    33    35    1
     9    35    36    1
    10    36    37    1
    11    37    38    1
    12    38    39    1
    13    39    40    1
    14    40    41    1
    15    27    28   ar
    16    28    29   ar
    17    29    30   ar
    18    30    24    1
    19    24     1    1
    20     1     2   ar
    21     2     3   ar
    22     3     4   ar
    23     4     5    1
    24     4     6   ar
    25     6     7   ar
    26     7     8    1
    27     8    10    1
    28    10    11    2
    29    10    12    2
    30    10    13    1
    31    13    14   ar
    32    14    15   ar
    33    15    16   ar
    34    16    17    1
    35    16    18   ar
    36    18    20    1
    37    20    21    1
    38    20    22    1
    39    20    23    1
    40    18    19   ar
    41    30    25   ar
    42     7     1   ar
    43    19    13   ar
    44    41    37    1
    45    33    34    1
    46     8     9    1
@<TRIPOS>MOLECULE
*****
 43 46 0 0 0
SMALL
GASTEIGER

@<TRIPOS>ATOM
      1 C         142.6124  144.2275  157.7266 C.ar    1  UNL1        0.1599
      2 C         142.7025  143.8053  156.2900 C.ar    1  UNL1        0.0397
      3 C         141.9136  144.5344  155.2431 C.ar    1  UNL1        0.0146
      4 C         141.0345  145.6856  155.6327 C.ar    1  UNL1        0.0591
      5 CL        140.2456  146.4147  154.5858 Cl      1  UNL1       -0.0822
      6 C         140.9444  146.1079  157.0692 C.ar    1  UNL1        0.0303
      7 C         141.7333  145.3788  158.1162 C.ar    1  UNL1        0.1000
      8 N         141.6432  145.8011  159.5527 N.pl3   1  UNL1       -0.2120
      9 H         142.1046  146.6161  159.8560 H       1  UNL1        0.1738
     10 S         140.8501  144.9815  160.5270 S.O2    1  UNL1        0.0737
     11 O         141.9704  145.0776  161.5198 O.2     1  UNL1       -0.1499
     12 O         139.7298  144.8855  159.5342 O.2     1  UNL1       -0.1499
     13 C         140.0569  144.1620  161.5013 C.ar    1  UNL1        0.1252
     14 C         139.0389  143.1803  161.0014 C.ar    1  UNL1        0.0210
     15 C         138.2458  142.3607  161.9757 C.ar    1  UNL1        0.0127
     16 C         138.4706  142.5229  163.4499 C.ar    1  UNL1        0.0616
     17 CL        137.6775  141.7033  164.4241 Cl      1  UNL1       -0.0823
     18 C         139.4887  143.5046  163.9498 C.ar    1  UNL1        0.0833
     19 C         140.2818  144.3242  162.9755 C.ar    1  UNL1        0.0249
     20 C         139.7135  143.6668  165.4239 C.3     1  UNL1        0.4194
     21 F         139.9383  143.8290  166.8980 F       1  UNL1       -0.1658
     22 F         140.8345  142.6721  165.3623 F       1  UNL1       -0.1658
     23 F         138.5925  144.6615  165.4854 F       1  UNL1       -0.1658
     24 O         143.4013  143.4985  158.7735 O.3     1  UNL1       -0.4491
     25 C         143.2834  141.9914  160.8865 C.ar    1  UNL1        0.1731
     26 C         142.6614  140.8498  161.6348 C.ar    1  UNL1        0.0446
     27 C         141.5354  140.0738  161.0184 C.ar    1  UNL1        0.0566
     28 C         141.0314  140.4393  159.6537 C.ar    1  UNL1        0.0078
     29 C         141.6534  141.5809  158.9055 C.ar    1  UNL1        0.0408
     30 C         142.7794  142.3569  159.5218 C.ar    1  UNL1        0.1790
     31 C         140.9135  138.9322  161.7667 C.2     1  UNL1        0.2460
     32 O         141.4529  137.5427  161.5988 O.2     1  UNL1       -0.2701
     33 N         139.7521  139.1802  162.6831 N.am    1  UNL1       -0.2994
     34 H         139.3980  140.0922  162.7933 H       1  UNL1        0.1498
     35 C         139.1301  138.0387  163.4314 C.3     1  UNL1        0.1070
     36 C         139.6885  137.6191  164.7589 C.3     1  UNL1        0.0936
     37 N         140.8693  138.3408  165.3377 N.3     1  UNL1       -0.2712
     38 C         140.8150  139.5257  166.2559 C.3     1  UNL1        0.0722
     39 C         142.2238  139.9214  166.5857 C.3     1  UNL1        0.0188
     40 C         143.1488  138.9811  165.8712 C.3     1  UNL1        0.0188
     41 C         142.3115  138.0042  165.0999 C.3     1  UNL1        0.0722
     42 C         144.4428  142.9909  162.9857 C.3     1  UNL1        0.2526
     43 O         144.4094  142.7674  161.5028 O.3     1  UNL1       -0.4683
@<TRIPOS>BOND
     1    42    43    1
     2    43    25    1
     3    25    26   ar
     4    26    27   ar
     5    27    31    1
     6    31    32    2
     7    31    33   am
     8    33    35    1
     9    35    36    1
    10    36    37    1
    11    37    38    1
    12    38    39    1
    13    39    40    1
    14    40    41    1
    15    27    28   ar
    16    28    29   ar
    17    29    30   ar
    18    30    24    1
    19    24     1    1
    20     1     2   ar
    21     2     3   ar
    22     3     4   ar
    23     4     5    1
    24     4     6   ar
    25     6     7   ar
    26     7     8    1
    27     8    10    1
    28    10    11    2
    29    10    12    2
    30    10    13    1
    31    13    14   ar
    32    14    15   ar
    33    15    16   ar
    34    16    17    1
    35    16    18   ar
    36    18    20    1
    37    20    21    1
    38    20    22    1
    39    20    23    1
    40    18    19   ar
    41    30    25   ar
    42     7     1   ar
    43    19    13   ar
    44    41    37    1
    45    33    34    1
    46     8     9    1
@<TRIPOS>MOLECULE
*****
 43 46 0 0 0
SMALL
GASTEIGER

@<TRIPOS>ATOM
      1 C         139.9888  144.4304  157.8964 C.ar    1  UNL1        0.1599
      2 C         139.5365  144.0209  156.5260 C.ar    1  UNL1        0.0397
      3 C         140.3863  144.3355  155.3307 C.ar    1  UNL1        0.0146
      4 C         141.6883  145.0595  155.5056 C.ar    1  UNL1        0.0591
      5 CL        142.5380  145.3741  154.3102 Cl      1  UNL1       -0.0822
      6 C         142.1406  145.4689  156.8759 C.ar    1  UNL1        0.0303
      7 C         141.2908  145.1544  158.0714 C.ar    1  UNL1        0.1000
      8 N         141.7431  145.5638  159.4417 N.pl3   1  UNL1       -0.2120
      9 H         141.8226  146.5184  159.6690 H       1  UNL1        0.1738
     10 S         142.0743  144.5188  160.4656 S.O2    1  UNL1        0.0737
     11 O         142.9738  143.8364  159.4781 O.2     1  UNL1       -0.1499
     12 O         141.1748  145.2013  161.4530 O.2     1  UNL1       -0.1499
     13 C         142.4055  143.4739  161.4895 C.ar    1  UNL1        0.1252
     14 C         143.2750  142.3094  161.1184 C.ar    1  UNL1        0.0210
     15 C         143.6062  141.2644  162.1423 C.ar    1  UNL1        0.0127
     16 C         143.0679  141.3840  163.5373 C.ar    1  UNL1        0.0616
     17 CL        143.3991  140.3390  164.5612 Cl      1  UNL1       -0.0823
     18 C         142.1983  142.5485  163.9083 C.ar    1  UNL1        0.0833
     19 C         141.8671  143.5935  162.8844 C.ar    1  UNL1        0.0249
     20 C         141.6599  142.6681  165.3033 C.3     1  UNL1        0.4194
     21 F         141.1216  142.7877  166.6982 F       1  UNL1       -0.1658
     22 F         143.0257  143.0418  165.7983 F       1  UNL1       -0.1658
     23 F         140.2942  142.2945  164.8082 F       1  UNL1       -0.1658
     24 O         139.1391  144.1158  159.0918 O.3     1  UNL1       -0.4491
     25 C         138.6211  142.5737  161.1176 C.ar    1  UNL1        0.1731
     26 C         138.7735  141.2575  161.8206 C.ar    1  UNL1        0.0446
     27 C         139.5963  140.1671  161.2009 C.ar    1  UNL1        0.0566
     28 C         140.2667  140.3929  159.8782 C.ar    1  UNL1        0.0078
     29 C         140.1143  141.7091  159.1752 C.ar    1  UNL1        0.0408
     30 C         139.2915  142.7995  159.7949 C.ar    1  UNL1        0.1790
     31 C         139.7487  138.8508  161.9040 C.2     1  UNL1        0.2460
     32 O         138.5829  137.9117  161.9988 O.2     1  UNL1       -0.2701
     33 N         141.0669  138.4736  162.5123 N.am    1  UNL1       -0.2994
     34 H         141.8321  139.0900  162.4501 H       1  UNL1        0.1498
     35 C         141.2193  137.1574  163.2154 C.3     1  UNL1        0.1070
     36 C         141.0343  137.0752  164.7016 C.3     1  UNL1        0.0936
     37 N         140.0852  138.0094  165.3921 N.3     1  UNL1       -0.2712
     38 C         138.5952  137.8549  165.4687 C.3     1  UNL1        0.0722
     39 C         138.0488  139.0121  166.2511 C.3     1  UNL1        0.0188
     40 C         139.2011  139.8819  166.6581 C.3     1  UNL1        0.0188
     41 C         140.4598  139.2621  166.1272 C.3     1  UNL1        0.0722
     42 C         138.2851  144.3609  162.9731 C.3     1  UNL1        0.2526
     43 O         137.7982  143.6641  161.7372 O.3     1  UNL1       -0.4683
@<TRIPOS>BOND
     1    42    43    1
     2    43    25    1
     3    25    26   ar
     4    26    27   ar
     5    27    31    1
     6    31    32    2
     7    31    33   am
     8    33    35    1
     9    35    36    1
    10    36    37    1
    11    37    38    1
    12    38    39    1
    13    39    40    1
    14    40    41    1
    15    27    28   ar
    16    28    29   ar
    17    29    30   ar
    18    30    24    1
    19    24     1    1
    20     1     2   ar
    21     2     3   ar
    22     3     4   ar
    23     4     5    1
    24     4     6   ar
    25     6     7   ar
    26     7     8    1
    27     8    10    1
    28    10    11    2
    29    10    12    2
    30    10    13    1
    31    13    14   ar
    32    14    15   ar
    33    15    16   ar
    34    16    17    1
    35    16    18   ar
    36    18    20    1
    37    20    21    1
    38    20    22    1
    39    20    23    1
    40    18    19   ar
    41    30    25   ar
    42     7     1   ar
    43    19    13   ar
    44    41    37    1
    45    33    34    1
    46     8     9    1
@<TRIPOS>MOLECULE
*****
 43 46 0 0 0
SMALL
GASTEIGER

@<TRIPOS>ATOM
      1 C         141.8769  144.0286  161.9733 C.ar    1  UNL1        0.1599
      2 C         140.8481  145.0272  161.5323 C.ar    1  UNL1        0.0397
      3 C         139.5668  145.1722  162.2987 C.ar    1  UNL1        0.0146
      4 C         139.3143  144.3186  163.5060 C.ar    1  UNL1        0.0591
      5 CL        138.0330  144.4636  164.2723 Cl      1  UNL1       -0.0822
      6 C         140.3430  143.3200  163.9470 C.ar    1  UNL1        0.0303
      7 C         141.6244  143.1750  163.1807 C.ar    1  UNL1        0.1000
      8 N         142.6531  142.1765  163.6217 N.pl3   1  UNL1       -0.2120
      9 H         143.2932  141.8088  162.9703 H       1  UNL1        0.1738
     10 S         142.7066  141.7380  165.0552 S.O2    1  UNL1        0.0737
     11 O         143.3897  143.0220  165.4224 O.2     1  UNL1       -0.1499
     12 O         142.0234  140.4541  164.6880 O.2     1  UNL1       -0.1499
     13 C         142.7600  141.2996  166.4887 C.ar    1  UNL1        0.1252
     14 C         142.5694  139.8534  166.8383 C.ar    1  UNL1        0.0210
     15 C         142.6229  139.4150  168.2718 C.ar    1  UNL1        0.0127
     16 C         142.8670  140.4227  169.3557 C.ar    1  UNL1        0.0616
     17 CL        142.9205  139.9843  170.7892 Cl      1  UNL1       -0.0823
     18 C         143.0576  141.8690  169.0061 C.ar    1  UNL1        0.0833
     19 C         143.0041  142.3074  167.5726 C.ar    1  UNL1        0.0249
     20 C         143.3017  142.8767  170.0900 C.3     1  UNL1        0.4194
     21 F         143.5458  143.8844  171.1739 F       1  UNL1       -0.1658
     22 F         144.7654  142.5499  170.0642 F       1  UNL1       -0.1658
     23 F         141.8380  143.2034  170.1158 F       1  UNL1       -0.1658
     24 O         143.1582  143.8836  161.2070 O.3     1  UNL1       -0.4491
     25 C         143.9094  141.5720  160.2893 C.ar    1  UNL1        0.1731
     26 C         144.0002  140.5904  159.1588 C.ar    1  UNL1        0.0446
     27 C         143.4306  140.9385  157.8156 C.ar    1  UNL1        0.0566
     28 C         142.7702  142.2684  157.6028 C.ar    1  UNL1        0.0078
     29 C         142.6794  143.2500  158.7333 C.ar    1  UNL1        0.0408
     30 C         143.2490  142.9019  160.0765 C.ar    1  UNL1        0.1790
     31 C         143.5214  139.9568  156.6850 C.2     1  UNL1        0.2460
     32 O         144.5588  140.1370  155.6167 O.2     1  UNL1       -0.2701
     33 N         142.5748  138.7948  156.6229 N.am    1  UNL1       -0.2994
     34 H         141.8940  138.6765  157.3241 H       1  UNL1        0.1498
     35 C         142.6656  137.8131  155.4925 C.3     1  UNL1        0.1070
     36 C         143.6368  136.6723  155.5660 C.3     1  UNL1        0.0936
     37 N         143.1412  135.2813  155.8302 N.3     1  UNL1       -0.2712
     38 C         143.6661  134.3420  156.8752 C.3     1  UNL1        0.0722
     39 C         142.8831  133.0656  156.7866 C.3     1  UNL1        0.0188
     40 C         141.8742  133.2162  155.6868 C.3     1  UNL1        0.0188
     41 C         142.0338  134.5856  155.0957 C.3     1  UNL1        0.0722
     42 C         144.4800  139.7987  162.1002 C.3     1  UNL1        0.2526
     43 O         144.4790  141.2238  161.6325 O.3     1  UNL1       -0.4683
@<TRIPOS>BOND
     1    42    43    1
     2    43    25    1
     3    25    26   ar
     4    26    27   ar
     5    27    31    1
     6    31    32    2
     7    31    33   am
     8    33    35    1
     9    35    36    1
    10    36    37    1
    11    37    38    1
    12    38    39    1
    13    39    40    1
    14    40    41    1
    15    27    28   ar
    16    28    29   ar
    17    29    30   ar
    18    30    24    1
    19    24     1    1
    20     1     2   ar
    21     2     3   ar
    22     3     4   ar
    23     4     5    1
    24     4     6   ar
    25     6     7   ar
    26     7     8    1
    27     8    10    1
    28    10    11    2
    29    10    12    2
    30    10    13    1
    31    13    14   ar
    32    14    15   ar
    33    15    16   ar
    34    16    17    1
    35    16    18   ar
    36    18    20    1
    37    20    21    1
    38    20    22    1
    39    20    23    1
    40    18    19   ar
    41    30    25   ar
    42     7     1   ar
    43    19    13   ar
    44    41    37    1
    45    33    34    1
    46     8     9    1
