@<TRIPOS>MOLECULE
*****
 29 32 0 0 0
SMALL
GASTEIGER

@<TRIPOS>ATOM
      1 N         141.7722  138.4070  162.6677 N.am    1  UNL1       -0.2602
      2 C         140.6598  138.0943  161.7112 C.3     1  UNL1        0.1167
      3 C         139.4486  137.7225  162.5143 C.3     1  UNL1        0.1165
      4 N         139.8125  137.8054  163.9672 N.am    1  UNL1       -0.2609
      5 C         141.2485  138.2285  164.0620 C.2     1  UNL1        0.3075
      6 O         142.0246  138.4365  165.3286 O.2     1  UNL1       -0.2523
      7 C         144.0307  137.9076  161.4847 C.3     1  UNL1        0.0265
      8 C         143.1637  138.8249  162.2953 C.3     1  UNL1        0.0994
      9 C         143.6884  140.1601  162.7335 C.ar    1  UNL1       -0.0043
     10 C         144.9935  140.2489  163.4675 C.ar    1  UNL1       -0.0027
     11 C         145.5182  141.5841  163.9057 C.ar    1  UNL1       -0.0003
     12 C         144.7378  142.8304  163.6099 C.ar    1  UNL1        0.0038
     13 C         143.4327  142.7416  162.8758 C.ar    1  UNL1        0.0712
     14 C         142.9080  141.4064  162.4376 C.ar    1  UNL1        0.0012
     15 C         142.6523  143.9880  162.5800 C.3     1  UNL1        0.4186
     16 F         141.8719  145.2344  162.2841 F       1  UNL1       -0.1659
     17 F         143.8804  144.8144  162.8223 F       1  UNL1       -0.1659
     18 F         141.4243  143.1615  162.3376 F       1  UNL1       -0.1659
     19 C         138.9005  137.5161  165.1225 C.3     1  UNL1        0.1123
     20 C         138.3701  138.6420  165.9596 C.3     1  UNL1        0.0944
     21 N         138.5225  140.0596  165.4933 N.3     1  UNL1       -0.2637
     22 C         139.4555  141.0823  166.0709 C.3     1  UNL1        0.0992
     23 C         139.2782  142.3581  165.3022 C.ar    1  UNL1       -0.0088
     24 C         139.9314  143.7028  165.4248 C.ar    1  UNL1       -0.0032
     25 C         139.5421  144.8133  164.4947 C.ar    1  UNL1       -0.0003
     26 C         138.4996  144.5791  163.4420 C.ar    1  UNL1       -0.0003
     27 C         137.8463  143.2344  163.3194 C.ar    1  UNL1       -0.0032
     28 C         138.2357  142.1239  164.2495 C.ar    1  UNL1       -0.0088
     29 C         137.7686  140.7033  164.3676 C.3     1  UNL1        0.0992
@<TRIPOS>BOND
     1     7     8    1
     2     8     9    1
     3     9    10   ar
     4    10    11   ar
     5    11    12   ar
     6    12    13   ar
     7    13    15    1
     8    15    16    1
     9    15    17    1
    10    15    18    1
    11    13    14   ar
    12     8     1    1
    13     1     2    1
    14     2     3    1
    15     3     4    1
    16     4    19    1
    17    19    20    1
    18    20    21    1
    19    21    22    1
    20    22    23    1
    21    23    24   ar
    22    24    25   ar
    23    25    26   ar
    24    26    27   ar
    25    27    28   ar
    26    28    29    1
    27     4     5   am
    28     5     6    2
    29    14     9   ar
    30     5     1   am
    31    29    21    1
    32    28    23   ar
@<TRIPOS>MOLECULE
*****
 29 32 0 0 0
SMALL
GASTEIGER

@<TRIPOS>ATOM
      1 N         141.4995  138.8624  165.0129 N.am    1  UNL1       -0.2602
      2 C         140.3248  139.0114  165.9336 C.3     1  UNL1        0.1167
      3 C         139.0908  138.6141  165.1789 C.3     1  UNL1        0.1165
      4 N         139.5030  138.2196  163.7916 N.am    1  UNL1       -0.2609
      5 C         140.9916  138.3730  163.6890 C.2     1  UNL1        0.3075
      6 O         141.8259  138.0872  162.4756 O.2     1  UNL1       -0.2523
      7 C         143.6891  138.2223  166.2561 C.3     1  UNL1        0.0265
      8 C         142.9307  139.1519  165.3558 C.3     1  UNL1        0.0994
      9 C         143.6036  140.3711  164.7983 C.ar    1  UNL1       -0.0043
     10 C         145.0050  140.2796  164.2715 C.ar    1  UNL1       -0.0027
     11 C         145.6779  141.4988  163.7141 C.ar    1  UNL1       -0.0003
     12 C         144.9493  142.8096  163.6834 C.ar    1  UNL1        0.0038
     13 C         143.5479  142.9012  164.2102 C.ar    1  UNL1        0.0712
     14 C         142.8750  141.6819  164.7677 C.ar    1  UNL1        0.0012
     15 C         142.8193  144.2120  164.1796 C.3     1  UNL1        0.4186
     16 F         142.0907  145.5229  164.1489 F       1  UNL1       -0.1659
     17 F         141.5162  143.4919  164.3623 F       1  UNL1       -0.1659
     18 F         144.1224  144.9320  163.9968 F       1  UNL1       -0.1659
     19 C         138.5873  137.7534  162.6988 C.3     1  UNL1        0.1123
     20 C         137.8547  138.7549  161.8560 C.3     1  UNL1        0.0944
     21 N         138.1918  140.2128  161.9605 N.3     1  UNL1       -0.2637
     22 C         139.3061  140.9139  161.2417 C.3     1  UNL1        0.0992
     23 C         139.2767  142.3600  161.6392 C.ar    1  UNL1       -0.0088
     24 C         140.1348  143.5262  161.2475 C.ar    1  UNL1       -0.0032
     25 C         139.8604  144.8850  161.8203 C.ar    1  UNL1       -0.0003
     26 C         138.7279  145.0777  162.7848 C.ar    1  UNL1       -0.0003
     27 C         137.8697  143.9115  163.1765 C.ar    1  UNL1       -0.0032
     28 C         138.1441  142.5526  162.6037 C.ar    1  UNL1       -0.0088
     29 C         137.4736  141.2256  162.8023 C.3     1  UNL1        0.0992
@<TRIPOS>BOND
     1     7     8    1
     2     8     9    1
     3     9    10   ar
     4    10    11   ar
     5    11    12   ar
     6    12    13   ar
     7    13    15    1
     8    15    16    1
     9    15    17    1
    10    15    18    1
    11    13    14   ar
    12     8     1    1
    13     1     2    1
    14     2     3    1
    15     3     4    1
    16     4    19    1
    17    19    20    1
    18    20    21    1
    19    21    22    1
    20    22    23    1
    21    23    24   ar
    22    24    25   ar
    23    25    26   ar
    24    26    27   ar
    25    27    28   ar
    26    28    29    1
    27     4     5   am
    28     5     6    2
    29    14     9   ar
    30     5     1   am
    31    29    21    1
    32    28    23   ar
@<TRIPOS>MOLECULE
*****
 29 32 0 0 0
SMALL
GASTEIGER

@<TRIPOS>ATOM
      1 N         143.9471  140.2115  164.9364 N.am    1  UNL1       -0.2602
      2 C         145.1471  140.3548  164.0480 C.3     1  UNL1        0.1167
      3 C         145.4006  141.8192  163.8439 C.3     1  UNL1        0.1165
      4 N         144.3572  142.5808  164.6063 N.am    1  UNL1       -0.2609
      5 C         143.4589  141.5872  165.2815 C.2     1  UNL1        0.3075
      6 O         142.2795  141.9123  166.1494 O.2     1  UNL1       -0.2523
      7 C         144.0892  138.0417  166.3582 C.3     1  UNL1        0.0265
      8 C         143.3416  138.9194  165.3986 C.3     1  UNL1        0.0994
      9 C         141.9885  138.5049  164.9012 C.ar    1  UNL1       -0.0043
     10 C         141.8438  137.9023  163.5352 C.ar    1  UNL1       -0.0027
     11 C         140.4907  137.4878  163.0378 C.ar    1  UNL1       -0.0003
     12 C         139.2824  137.6759  163.9064 C.ar    1  UNL1        0.0038
     13 C         139.4271  138.2786  165.2724 C.ar    1  UNL1        0.0712
     14 C         140.7802  138.6930  165.7698 C.ar    1  UNL1        0.0012
     15 C         138.2187  138.4667  166.1410 C.3     1  UNL1        0.4186
     16 F         137.0103  138.6549  167.0096 F       1  UNL1       -0.1659
     17 F         138.0645  136.9786  166.2488 F       1  UNL1       -0.1659
     18 F         138.3729  139.9548  166.0331 F       1  UNL1       -0.1659
     19 C         144.2338  144.0739  164.6805 C.3     1  UNL1        0.1123
     20 C         143.1072  144.7693  163.9753 C.3     1  UNL1        0.0944
     21 N         141.8226  144.0405  163.7135 N.3     1  UNL1       -0.2637
     22 C         141.6015  142.9927  162.6632 C.3     1  UNL1        0.0992
     23 C         140.1757  142.5361  162.7567 C.ar    1  UNL1       -0.0088
     24 C         139.3933  141.5222  161.9760 C.ar    1  UNL1       -0.0032
     25 C         137.9507  141.2739  162.3033 C.ar    1  UNL1       -0.0003
     26 C         137.2905  142.0396  163.4114 C.ar    1  UNL1       -0.0003
     27 C         138.0730  143.0536  164.1921 C.ar    1  UNL1       -0.0032
     28 C         139.5156  143.3019  163.8648 C.ar    1  UNL1       -0.0088
     29 C         140.5334  144.2316  164.4561 C.3     1  UNL1        0.0992
@<TRIPOS>BOND
     1     7     8    1
     2     8     9    1
     3     9    10   ar
     4    10    11   ar
     5    11    12   ar
     6    12    13   ar
     7    13    15    1
     8    15    16    1
     9    15    17    1
    10    15    18    1
    11    13    14   ar
    12     8     1    1
    13     1     2    1
    14     2     3    1
    15     3     4    1
    16     4    19    1
    17    19    20    1
    18    20    21    1
    19    21    22    1
    20    22    23    1
    21    23    24   ar
    22    24    25   ar
    23    25    26   ar
    24    26    27   ar
    25    27    28   ar
    26    28    29    1
    27     4     5   am
    28     5     6    2
    29    14     9   ar
    30     5     1   am
    31    29    21    1
    32    28    23   ar
@<TRIPOS>MOLECULE
*****
 29 32 0 0 0
SMALL
GASTEIGER

@<TRIPOS>ATOM
      1 N         138.5588  139.3931  164.7943 N.am    1  UNL1       -0.2602
      2 C         139.0010  138.3237  163.8400 C.3     1  UNL1        0.1167
      3 C         138.8083  138.8390  162.4445 C.3     1  UNL1        0.1165
      4 N         138.2469  140.2270  162.5364 N.am    1  UNL1       -0.2609
      5 C         138.0927  140.5694  163.9887 C.2     1  UNL1        0.3075
      6 O         137.5651  141.8614  164.5387 O.2     1  UNL1       -0.2523
      7 C         137.6001  138.4155  167.0022 C.3     1  UNL1        0.0265
      8 C         138.5790  139.3022  166.2914 C.3     1  UNL1        0.0994
      9 C         139.5783  140.0980  167.0776 C.ar    1  UNL1       -0.0043
     10 C         139.4261  140.2347  168.5636 C.ar    1  UNL1       -0.0027
     11 C         140.4254  141.0305  169.3498 C.ar    1  UNL1       -0.0003
     12 C         141.5769  141.6896  168.6501 C.ar    1  UNL1        0.0038
     13 C         141.7291  141.5528  167.1641 C.ar    1  UNL1        0.0712
     14 C         140.7298  140.7570  166.3779 C.ar    1  UNL1        0.0012
     15 C         142.8806  142.2119  166.4644 C.3     1  UNL1        0.4186
     16 F         144.0321  142.8711  165.7646 F       1  UNL1       -0.1659
     17 F         143.5326  142.4788  167.7886 F       1  UNL1       -0.1659
     18 F         142.2286  141.9451  165.1401 F       1  UNL1       -0.1659
     19 C         137.9006  141.1164  161.3793 C.3     1  UNL1        0.1123
     20 C         138.1531  142.5924  161.4659 C.3     1  UNL1        0.0944
     21 N         139.5058  143.0995  161.8696 N.3     1  UNL1       -0.2637
     22 C         139.7786  144.1855  162.8678 C.3     1  UNL1        0.0992
     23 C         141.2646  144.3668  162.9611 C.ar    1  UNL1       -0.0088
     24 C         142.1132  145.2929  163.7810 C.ar    1  UNL1       -0.0032
     25 C         143.6076  145.2450  163.6604 C.ar    1  UNL1       -0.0003
     26 C         144.2533  144.2711  162.7199 C.ar    1  UNL1       -0.0003
     27 C         143.4047  143.3450  161.9001 C.ar    1  UNL1       -0.0032
     28 C         141.9104  143.3929  162.0207 C.ar    1  UNL1       -0.0088
     29 C         140.8234  142.6097  161.3461 C.3     1  UNL1        0.0992
@<TRIPOS>BOND
     1     7     8    1
     2     8     9    1
     3     9    10   ar
     4    10    11   ar
     5    11    12   ar
     6    12    13   ar
     7    13    15    1
     8    15    16    1
     9    15    17    1
    10    15    18    1
    11    13    14   ar
    12     8     1    1
    13     1     2    1
    14     2     3    1
    15     3     4    1
    16     4    19    1
    17    19    20    1
    18    20    21    1
    19    21    22    1
    20    22    23    1
    21    23    24   ar
    22    24    25   ar
    23    25    26   ar
    24    26    27   ar
    25    27    28   ar
    26    28    29    1
    27     4     5   am
    28     5     6    2
    29    14     9   ar
    30     5     1   am
    31    29    21    1
    32    28    23   ar
@<TRIPOS>MOLECULE
*****
 29 32 0 0 0
SMALL
GASTEIGER

@<TRIPOS>ATOM
      1 N         142.4621  143.4658  164.0706 N.am    1  UNL1       -0.2602
      2 C         142.6770  143.7816  162.6201 C.3     1  UNL1        0.1167
      3 C         141.3837  144.2966  162.0612 C.3     1  UNL1        0.1165
      4 N         140.3695  144.2990  163.1665 N.am    1  UNL1       -0.2609
      5 C         141.0360  143.7856  164.4083 C.2     1  UNL1        0.3075
      6 O         140.3898  143.6208  165.7519 O.2     1  UNL1       -0.2523
      7 C         144.6449  143.7856  165.4427 C.3     1  UNL1        0.0265
      8 C         143.4923  142.9251  165.0172 C.3     1  UNL1        0.0994
      9 C         143.3701  141.5238  165.5383 C.ar    1  UNL1       -0.0043
     10 C         143.9608  140.3820  164.7654 C.ar    1  UNL1       -0.0027
     11 C         143.8385  138.9807  165.2865 C.ar    1  UNL1       -0.0003
     12 C         143.1255  138.7213  166.5804 C.ar    1  UNL1        0.0038
     13 C         142.5348  139.8631  167.3533 C.ar    1  UNL1        0.0712
     14 C         142.6571  141.2644  166.8322 C.ar    1  UNL1        0.0012
     15 C         141.8219  139.6036  168.6473 C.3     1  UNL1        0.4186
     16 F         141.1089  139.3441  169.9413 F       1  UNL1       -0.1659
     17 F         140.7883  140.6278  168.2831 F       1  UNL1       -0.1659
     18 F         142.8555  138.5794  169.0114 F       1  UNL1       -0.1659
     19 C         138.9398  144.7379  163.0502 C.3     1  UNL1        0.1123
     20 C         137.8559  143.7192  162.8573 C.3     1  UNL1        0.0944
     21 N         138.0779  142.2980  163.2828 N.3     1  UNL1       -0.2637
     22 C         137.9356  141.7625  164.6766 C.3     1  UNL1        0.0992
     23 C         138.2510  140.2963  164.6444 C.ar    1  UNL1       -0.0088
     24 C         138.2746  139.2509  165.7198 C.ar    1  UNL1       -0.0032
     25 C         138.6356  137.8349  165.3813 C.ar    1  UNL1       -0.0003
     26 C         138.9729  137.4643  163.9674 C.ar    1  UNL1       -0.0003
     27 C         138.9492  138.5098  162.8921 C.ar    1  UNL1       -0.0032
     28 C         138.5883  139.9258  163.2306 C.ar    1  UNL1       -0.0088
     29 C         138.4813  141.1629  162.3891 C.3     1  UNL1        0.0992
@<TRIPOS>BOND
     1     7     8    1
     2     8     9    1
     3     9    10   ar
     4    10    11   ar
     5    11    12   ar
     6    12    13   ar
     7    13    15    1
     8    15    16    1
     9    15    17    1
    10    15    18    1
    11    13    14   ar
    12     8     1    1
    13     1     2    1
    14     2     3    1
    15     3     4    1
    16     4    19    1
    17    19    20    1
    18    20    21    1
    19    21    22    1
    20    22    23    1
    21    23    24   ar
    22    24    25   ar
    23    25    26   ar
    24    26    27   ar
    25    27    28   ar
    26    28    29    1
    27     4     5   am
    28     5     6    2
    29    14     9   ar
    30     5     1   am
    31    29    21    1
    32    28    23   ar
@<TRIPOS>MOLECULE
*****
 29 32 0 0 0
SMALL
GASTEIGER

@<TRIPOS>ATOM
      1 N         143.7024  139.8234  164.7275 N.am    1  UNL1       -0.2602
      2 C         144.0438  139.2235  163.3958 C.3     1  UNL1        0.1167
      3 C         144.4730  140.3340  162.4833 C.3     1  UNL1        0.1165
      4 N         144.3969  141.6204  163.2512 N.am    1  UNL1       -0.2609
      5 C         143.9206  141.3048  164.6381 C.2     1  UNL1        0.3075
      6 O         143.7011  142.2965  165.7419 O.2     1  UNL1       -0.2523
      7 C         144.0514  137.9534  166.4970 C.3     1  UNL1        0.0265
      8 C         143.2264  139.0737  165.9363 C.3     1  UNL1        0.0994
      9 C         141.9254  139.4442  166.5844 C.ar    1  UNL1       -0.0043
     10 C         140.6878  139.5942  165.7502 C.ar    1  UNL1       -0.0027
     11 C         139.3868  139.9647  166.3983 C.ar    1  UNL1       -0.0003
     12 C         139.3233  140.1853  167.8806 C.ar    1  UNL1        0.0038
     13 C         140.5609  140.0354  168.7148 C.ar    1  UNL1        0.0712
     14 C         141.8619  139.6648  168.0667 C.ar    1  UNL1        0.0012
     15 C         140.4974  140.2560  170.1971 C.3     1  UNL1        0.4186
     16 F         140.4339  140.4766  171.6795 F       1  UNL1       -0.1659
     17 F         141.7327  139.4236  170.3739 F       1  UNL1       -0.1659
     18 F         139.2622  141.0884  170.0203 F       1  UNL1       -0.1659
     19 C         144.7373  142.9830  162.7246 C.3     1  UNL1        0.1123
     20 C         143.6496  143.8875  162.2257 C.3     1  UNL1        0.0944
     21 N         142.2648  143.7781  162.7915 N.3     1  UNL1       -0.2637
     22 C         141.2978  142.6580  162.5456 C.3     1  UNL1        0.0992
     23 C         140.0391  142.9571  163.3047 C.ar    1  UNL1       -0.0088
     24 C         138.7453  142.2099  163.4372 C.ar    1  UNL1       -0.0032
     25 C         137.6405  142.7676  164.2847 C.ar    1  UNL1       -0.0003
     26 C         137.8295  144.0725  164.9998 C.ar    1  UNL1       -0.0003
     27 C         139.1234  144.8198  164.8674 C.ar    1  UNL1       -0.0032
     28 C         140.2281  144.2621  164.0198 C.ar    1  UNL1       -0.0088
     29 C         141.6037  144.7694  163.7026 C.3     1  UNL1        0.0992
@<TRIPOS>BOND
     1     7     8    1
     2     8     9    1
     3     9    10   ar
     4    10    11   ar
     5    11    12   ar
     6    12    13   ar
     7    13    15    1
     8    15    16    1
     9    15    17    1
    10    15    18    1
    11    13    14   ar
    12     8     1    1
    13     1     2    1
    14     2     3    1
    15     3     4    1
    16     4    19    1
    17    19    20    1
    18    20    21    1
    19    21    22    1
    20    22    23    1
    21    23    24   ar
    22    24    25   ar
    23    25    26   ar
    24    26    27   ar
    25    27    28   ar
    26    28    29    1
    27     4     5   am
    28     5     6    2
    29    14     9   ar
    30     5     1   am
    31    29    21    1
    32    28    23   ar
@<TRIPOS>MOLECULE
*****
 29 32 0 0 0
SMALL
GASTEIGER

@<TRIPOS>ATOM
      1 N         138.8675  142.6674  163.9408 N.am    1  UNL1       -0.2602
      2 C         138.6941  143.1477  162.5305 C.3     1  UNL1        0.1167
      3 C         138.2629  141.9804  161.6929 C.3     1  UNL1        0.1165
      4 N         138.1699  140.7785  162.5857 N.am    1  UNL1       -0.2609
      5 C         138.5435  141.2032  163.9750 C.2     1  UNL1        0.3075
      6 O         138.5858  140.3189  165.1859 O.2     1  UNL1       -0.2523
      7 C         138.5856  144.7956  165.4041 C.3     1  UNL1        0.0265
      8 C         139.2906  143.5043  165.1115 C.3     1  UNL1        0.0994
      9 C         140.4187  143.0500  165.9895 C.ar    1  UNL1       -0.0043
     10 C         141.7397  142.6807  165.3825 C.ar    1  UNL1       -0.0027
     11 C         142.8678  142.2263  166.2605 C.ar    1  UNL1       -0.0003
     12 C         142.6749  142.1413  167.7456 C.ar    1  UNL1        0.0038
     13 C         141.3539  142.5106  168.3527 C.ar    1  UNL1        0.0712
     14 C         140.2258  142.9649  167.4746 C.ar    1  UNL1        0.0012
     15 C         141.1610  142.4255  169.8378 C.3     1  UNL1        0.4186
     16 F         140.9681  142.3405  171.3229 F       1  UNL1       -0.1659
     17 F         141.0634  140.9319  169.7395 F       1  UNL1       -0.1659
     18 F         141.2586  143.9191  169.9360 F       1  UNL1       -0.1659
     19 C         137.7729  139.3951  162.1634 C.3     1  UNL1        0.1123
     20 C         138.7996  138.3027  162.1128 C.3     1  UNL1        0.0944
     21 N         140.1227  138.4848  162.7957 N.3     1  UNL1       -0.2637
     22 C         140.4874  137.9801  164.1603 C.3     1  UNL1        0.0992
     23 C         141.9035  138.3869  164.4418 C.ar    1  UNL1       -0.0088
     24 C         142.7941  138.1665  165.6285 C.ar    1  UNL1       -0.0032
     25 C         144.1951  138.7023  165.6245 C.ar    1  UNL1       -0.0003
     26 C         144.7055  139.4584  164.4339 C.ar    1  UNL1       -0.0003
     27 C         143.8150  139.6788  163.2472 C.ar    1  UNL1       -0.0032
     28 C         142.4140  139.1430  163.2512 C.ar    1  UNL1       -0.0088
     29 C         141.3133  139.2035  162.2338 C.3     1  UNL1        0.0992
@<TRIPOS>BOND
     1     7     8    1
     2     8     9    1
     3     9    10   ar
     4    10    11   ar
     5    11    12   ar
     6    12    13   ar
     7    13    15    1
     8    15    16    1
     9    15    17    1
    10    15    18    1
    11    13    14   ar
    12     8     1    1
    13     1     2    1
    14     2     3    1
    15     3     4    1
    16     4    19    1
    17    19    20    1
    18    20    21    1
    19    21    22    1
    20    22    23    1
    21    23    24   ar
    22    24    25   ar
    23    25    26   ar
    24    26    27   ar
    25    27    28   ar
    26    28    29    1
    27     4     5   am
    28     5     6    2
    29    14     9   ar
    30     5     1   am
    31    29    21    1
    32    28    23   ar
@<TRIPOS>MOLECULE
*****
 29 32 0 0 0
SMALL
GASTEIGER

@<TRIPOS>ATOM
      1 N         139.2611  142.6222  163.0953 N.am    1  UNL1       -0.2602
      2 C         138.7010  143.7504  163.9098 C.3     1  UNL1        0.1167
      3 C         139.7764  144.7835  164.0721 C.3     1  UNL1        0.1165
      4 N         141.0011  144.2937  163.3578 N.am    1  UNL1       -0.2609
      5 C         140.6826  142.9580  162.7541 C.2     1  UNL1        0.3075
      6 O         141.6210  142.1074  161.9504 O.2     1  UNL1       -0.2523
      7 C         137.7277  141.3547  161.4243 C.3     1  UNL1        0.0265
      8 C         138.5282  141.3770  162.6926 C.3     1  UNL1        0.0994
      9 C         138.5959  140.1539  163.5584 C.ar    1  UNL1       -0.0043
     10 C         138.9365  138.8244  162.9530 C.ar    1  UNL1       -0.0027
     11 C         139.0042  137.6013  163.8188 C.ar    1  UNL1       -0.0003
     12 C         138.7313  137.7077  165.2899 C.ar    1  UNL1        0.0038
     13 C         138.3907  139.0372  165.8952 C.ar    1  UNL1        0.0712
     14 C         138.3230  140.2603  165.0295 C.ar    1  UNL1        0.0012
     15 C         138.1177  139.1436  167.3663 C.3     1  UNL1        0.4186
     16 F         137.8448  139.2499  168.8375 F       1  UNL1       -0.1659
     17 F         139.1735  140.2024  167.4856 F       1  UNL1       -0.1659
     18 F         137.0620  138.0847  167.2471 F       1  UNL1       -0.1659
     19 C         142.3139  145.0134  163.2637 C.3     1  UNL1        0.1123
     20 C         143.5057  144.5010  164.0168 C.3     1  UNL1        0.0944
     21 N         143.4795  143.1266  164.6171 N.3     1  UNL1       -0.2637
     22 C         144.1702  141.9125  164.0705 C.3     1  UNL1        0.0992
     23 C         143.8757  140.7605  164.9849 C.ar    1  UNL1       -0.0088
     24 C         144.2894  139.3192  164.9489 C.ar    1  UNL1       -0.0032
     25 C         143.8304  138.3800  166.0246 C.ar    1  UNL1       -0.0003
     26 C         142.9576  138.8822  167.1364 C.ar    1  UNL1       -0.0003
     27 C         142.5438  140.3235  167.1724 C.ar    1  UNL1       -0.0032
     28 C         143.0029  141.2627  166.0967 C.ar    1  UNL1       -0.0088
     29 C         142.7580  142.7250  165.8693 C.3     1  UNL1        0.0992
@<TRIPOS>BOND
     1     7     8    1
     2     8     9    1
     3     9    10   ar
     4    10    11   ar
     5    11    12   ar
     6    12    13   ar
     7    13    15    1
     8    15    16    1
     9    15    17    1
    10    15    18    1
    11    13    14   ar
    12     8     1    1
    13     1     2    1
    14     2     3    1
    15     3     4    1
    16     4    19    1
    17    19    20    1
    18    20    21    1
    19    21    22    1
    20    22    23    1
    21    23    24   ar
    22    24    25   ar
    23    25    26   ar
    24    26    27   ar
    25    27    28   ar
    26    28    29    1
    27     4     5   am
    28     5     6    2
    29    14     9   ar
    30     5     1   am
    31    29    21    1
    32    28    23   ar
@<TRIPOS>MOLECULE
*****
 29 32 0 0 0
SMALL
GASTEIGER

@<TRIPOS>ATOM
      1 N         138.5561  140.7860  164.8443 N.am    1  UNL1       -0.2602
      2 C         137.7550  140.5690  163.5949 C.3     1  UNL1        0.1167
      3 C         137.6266  141.8877  162.8916 C.3     1  UNL1        0.1165
      4 N         138.3484  142.9198  163.7065 N.am    1  UNL1       -0.2609
      5 C         138.9228  142.2389  164.9133 C.2     1  UNL1        0.3075
      6 O         139.7234  142.8955  165.9986 O.2     1  UNL1       -0.2523
      7 C         137.8550  138.9090  166.4982 C.3     1  UNL1        0.0265
      8 C         138.9255  139.7348  165.8484 C.3     1  UNL1        0.0994
      9 C         140.3655  139.5092  166.2028 C.ar    1  UNL1       -0.0043
     10 C         141.3062  138.9314  165.1873 C.ar    1  UNL1       -0.0027
     11 C         142.7462  138.7058  165.5417 C.ar    1  UNL1       -0.0003
     12 C         143.2455  139.0582  166.9115 C.ar    1  UNL1        0.0038
     13 C         142.3049  139.6361  167.9270 C.ar    1  UNL1        0.0712
     14 C         140.8649  139.8616  167.5726 C.ar    1  UNL1        0.0012
     15 C         142.8042  139.9884  169.2968 C.3     1  UNL1        0.4186
     16 F         143.3036  140.3409  170.6667 F       1  UNL1       -0.1659
     17 F         142.3123  138.6697  169.8154 F       1  UNL1       -0.1659
     18 F         143.2961  141.3072  168.7783 F       1  UNL1       -0.1659
     19 C         138.4737  144.3769  163.3730 C.3     1  UNL1        0.1123
     20 C         139.7851  144.9270  162.8959 C.3     1  UNL1        0.0944
     21 N         141.0393  144.1195  163.0541 N.3     1  UNL1       -0.2637
     22 C         142.1051  144.3393  164.0864 C.3     1  UNL1        0.0992
     23 C         143.1724  143.3061  163.8781 C.ar    1  UNL1       -0.0088
     24 C         144.4616  143.0360  164.5957 C.ar    1  UNL1       -0.0032
     25 C         145.3446  141.9076  164.1521 C.ar    1  UNL1       -0.0003
     26 C         144.9384  141.0492  162.9910 C.ar    1  UNL1       -0.0003
     27 C         143.6492  141.3192  162.2735 C.ar    1  UNL1       -0.0032
     28 C         142.7662  142.4477  162.7170 C.ar    1  UNL1       -0.0088
     29 C         141.4479  142.9504  162.2078 C.3     1  UNL1        0.0992
@<TRIPOS>BOND
     1     7     8    1
     2     8     9    1
     3     9    10   ar
     4    10    11   ar
     5    11    12   ar
     6    12    13   ar
     7    13    15    1
     8    15    16    1
     9    15    17    1
    10    15    18    1
    11    13    14   ar
    12     8     1    1
    13     1     2    1
    14     2     3    1
    15     3     4    1
    16     4    19    1
    17    19    20    1
    18    20    21    1
    19    21    22    1
    20    22    23    1
    21    23    24   ar
    22    24    25   ar
    23    25    26   ar
    24    26    27   ar
    25    27    28   ar
    26    28    29    1
    27     4     5   am
    28     5     6    2
    29    14     9   ar
    30     5     1   am
    31    29    21    1
    32    28    23   ar
