@<TRIPOS>MOLECULE
*****
 29 33 0 0 0
SMALL
GASTEIGER

@<TRIPOS>ATOM
      1 C         138.9920  139.6272  165.2109 C.ar    1  UNL1        0.0651
      2 C         139.3832  138.3176  164.5930 C.ar    1  UNL1        0.0177
      3 C         139.3731  138.1592  163.1015 C.ar    1  UNL1        0.0060
      4 C         138.9719  139.3105  162.2276 C.ar    1  UNL1        0.0537
      5 C         138.5807  140.6201  162.8454 C.ar    1  UNL1        0.0060
      6 C         138.5907  140.7786  164.3370 C.ar    1  UNL1        0.0177
      7 C         137.1313  137.9814  167.3271 C.3     1  UNL1        0.0722
      8 C         138.1467  139.0291  167.6752 C.ar    1  UNL1        0.1246
      9 N         138.4852  139.5043  169.0570 N.ar    1  UNL1       -0.2306
     10 C         139.5497  140.5545  168.9384 C.ar    1  UNL1        0.0986
     11 C         140.2694  141.3749  169.9674 C.ar    1  UNL1        0.0206
     12 C         141.3085  142.3692  169.5411 C.ar    1  UNL1        0.0016
     13 C         141.6279  142.5430  168.0859 C.ar    1  UNL1        0.0016
     14 C         140.9082  141.7226  167.0569 C.ar    1  UNL1        0.0191
     15 C         139.8691  140.7283  167.4831 C.ar    1  UNL1        0.0826
     16 N         139.0020  139.7856  166.7024 N.ar    1  UNL1       -0.2936
     17 C         138.9619  139.1520  160.7361 C.2     1  UNL1        0.2491
     18 O         137.6621  139.1786  159.9878 O.2     1  UNL1       -0.2699
     19 N         140.2516  138.9671  159.9928 N.am    1  UNL1       -0.2745
     20 C         140.2415  138.8086  158.5012 C.3     1  UNL1        0.1151
     21 C         141.5513  138.9405  160.7411 C.3     1  UNL1        0.0930
     22 C         142.3964  137.7280  160.9975 C.3     1  UNL1        0.0386
     23 C         143.6015  138.1599  161.7793 C.3     1  UNL1        0.0738
     24 N         143.5012  139.6392  162.0061 N.3     1  UNL1       -0.2725
     25 C         142.2341  140.1217  161.3644 C.3     1  UNL1        0.0921
     26 C         144.4938  140.4872  162.7448 C.3     1  UNL1        0.0576
     27 C         145.1742  141.7976  162.4801 C.3     1  UNL1        0.0160
     28 C         145.8975  141.6865  163.7894 C.3     1  UNL1        0.0028
     29 C         145.2171  140.3761  164.0541 C.3     1  UNL1        0.0160
@<TRIPOS>BOND
     1     7     8    1
     2     8     9   ar
     3     9    10   ar
     4    10    11   ar
     5    11    12   ar
     6    12    13   ar
     7    13    14   ar
     8    14    15   ar
     9    15    16   ar
    10    16     1    1
    11     1     2   ar
    12     2     3   ar
    13     3     4   ar
    14     4    17    1
    15    17    18    2
    16    17    19   am
    17    19    20    1
    18    21    19    1
    19    21    22    1
    20    22    23    1
    21    23    24    1
    22    24    26    1
    23    26    27    1
    24    27    28    1
    25    28    29    1
    26    24    25    1
    27     4     5   ar
    28     5     6   ar
    29    16     8   ar
    30     6     1   ar
    31    15    10   ar
    32    25    21    1
    33    29    26    1
@<TRIPOS>MOLECULE
*****
 29 33 0 0 0
SMALL
GASTEIGER

@<TRIPOS>ATOM
      1 C         139.6700  139.5359  165.4838 C.ar    1  UNL1        0.0651
      2 C         140.6281  138.4600  165.0661 C.ar    1  UNL1        0.0177
      3 C         140.8967  138.2187  163.6102 C.ar    1  UNL1        0.0060
      4 C         140.2073  139.0533  162.5719 C.ar    1  UNL1        0.0537
      5 C         139.2492  140.1293  162.9895 C.ar    1  UNL1        0.0060
      6 C         138.9806  140.3706  164.4454 C.ar    1  UNL1        0.0177
      7 C         137.3271  138.1224  167.2620 C.3     1  UNL1        0.0722
      8 C         138.3244  139.1275  167.7570 C.ar    1  UNL1        0.1246
      9 N         138.4200  139.6594  169.1563 N.ar    1  UNL1       -0.2306
     10 C         139.5559  140.6379  169.2037 C.ar    1  UNL1        0.0986
     11 C         140.1164  141.4719  170.3173 C.ar    1  UNL1        0.0206
     12 C         141.2833  142.3788  170.0610 C.ar    1  UNL1        0.0016
     13 C         141.8898  142.4516  168.6910 C.ar    1  UNL1        0.0016
     14 C         141.3294  141.6176  167.5774 C.ar    1  UNL1        0.0191
     15 C         140.1625  140.7107  167.8337 C.ar    1  UNL1        0.0826
     16 N         139.4014  139.7772  166.9396 N.ar    1  UNL1       -0.2936
     17 C         140.4760  138.8120  161.1161 C.2     1  UNL1        0.2491
     18 O         139.5192  137.9915  160.3029 O.2     1  UNL1       -0.2699
     19 N         141.7014  139.3911  160.4735 N.am    1  UNL1       -0.2745
     20 C         141.9700  139.1497  159.0175 C.3     1  UNL1        0.1151
     21 C         142.6582  140.2115  161.2867 C.3     1  UNL1        0.0930
     22 C         144.0605  139.8251  161.6528 C.3     1  UNL1        0.0386
     23 C         144.6496  140.9372  162.4691 C.3     1  UNL1        0.0738
     24 N         143.6114  142.0109  162.6075 N.3     1  UNL1       -0.2725
     25 C         142.3806  141.5624  161.8767 C.3     1  UNL1        0.0921
     26 C         143.7752  143.3057  163.3467 C.3     1  UNL1        0.0576
     27 C         144.0971  143.6859  164.7617 C.3     1  UNL1        0.0160
     28 C         144.0068  145.1369  164.3923 C.3     1  UNL1        0.0028
     29 C         143.6849  144.7567  162.9774 C.3     1  UNL1        0.0160
@<TRIPOS>BOND
     1     7     8    1
     2     8     9   ar
     3     9    10   ar
     4    10    11   ar
     5    11    12   ar
     6    12    13   ar
     7    13    14   ar
     8    14    15   ar
     9    15    16   ar
    10    16     1    1
    11     1     2   ar
    12     2     3   ar
    13     3     4   ar
    14     4    17    1
    15    17    18    2
    16    17    19   am
    17    19    20    1
    18    21    19    1
    19    21    22    1
    20    22    23    1
    21    23    24    1
    22    24    26    1
    23    26    27    1
    24    27    28    1
    25    28    29    1
    26    24    25    1
    27     4     5   ar
    28     5     6   ar
    29    16     8   ar
    30     6     1   ar
    31    15    10   ar
    32    25    21    1
    33    29    26    1
@<TRIPOS>MOLECULE
*****
 29 33 0 0 0
SMALL
GASTEIGER

@<TRIPOS>ATOM
      1 C         139.2245  139.7526  165.3357 C.ar    1  UNL1        0.0651
      2 C         140.4176  139.0829  164.7211 C.ar    1  UNL1        0.0177
      3 C         140.5113  138.9374  163.2311 C.ar    1  UNL1        0.0060
      4 C         139.4119  139.4617  162.3557 C.ar    1  UNL1        0.0537
      5 C         138.2187  140.1315  162.9702 C.ar    1  UNL1        0.0060
      6 C         138.1250  140.2769  164.4602 C.ar    1  UNL1        0.0177
      7 C         137.2763  138.0353  167.3118 C.3     1  UNL1        0.0722
      8 C         138.2352  139.1087  167.7340 C.ar    1  UNL1        0.1246
      9 N         138.4671  139.5813  169.1386 N.ar    1  UNL1       -0.2306
     10 C         139.5058  140.6627  169.0984 C.ar    1  UNL1        0.0986
     11 C         140.1312  141.4943  170.1787 C.ar    1  UNL1        0.0206
     12 C         141.1667  142.5218  169.8296 C.ar    1  UNL1        0.0016
     13 C         141.5769  142.7176  168.4001 C.ar    1  UNL1        0.0016
     14 C         140.9515  141.8859  167.3197 C.ar    1  UNL1        0.0191
     15 C         139.9160  140.8585  167.6689 C.ar    1  UNL1        0.0826
     16 N         139.1307  139.8981  166.8257 N.ar    1  UNL1       -0.2936
     17 C         139.5057  139.3162  160.8657 C.2     1  UNL1        0.2491
     18 O         139.1974  137.9979  160.2201 O.2     1  UNL1       -0.2699
     19 N         139.9077  140.4891  160.0214 N.am    1  UNL1       -0.2745
     20 C         140.0015  140.3435  158.5314 C.3     1  UNL1        0.1151
     21 C         140.2160  141.8074  160.6672 C.3     1  UNL1        0.0930
     22 C         139.3532  143.0336  160.6235 C.3     1  UNL1        0.0386
     23 C         140.0451  144.1150  161.3993 C.3     1  UNL1        0.0738
     24 N         141.3355  143.5572  161.9224 N.3     1  UNL1       -0.2725
     25 C         141.4411  142.1309  161.4699 C.3     1  UNL1        0.0921
     26 C         142.3434  144.2958  162.7522 C.3     1  UNL1        0.0576
     27 C         142.2710  145.3201  163.8457 C.3     1  UNL1        0.0160
     28 C         143.7686  145.3404  163.9258 C.3     1  UNL1        0.0028
     29 C         143.8410  144.3161  162.8324 C.3     1  UNL1        0.0160
@<TRIPOS>BOND
     1     7     8    1
     2     8     9   ar
     3     9    10   ar
     4    10    11   ar
     5    11    12   ar
     6    12    13   ar
     7    13    14   ar
     8    14    15   ar
     9    15    16   ar
    10    16     1    1
    11     1     2   ar
    12     2     3   ar
    13     3     4   ar
    14     4    17    1
    15    17    18    2
    16    17    19   am
    17    19    20    1
    18    21    19    1
    19    21    22    1
    20    22    23    1
    21    23    24    1
    22    24    26    1
    23    26    27    1
    24    27    28    1
    25    28    29    1
    26    24    25    1
    27     4     5   ar
    28     5     6   ar
    29    16     8   ar
    30     6     1   ar
    31    15    10   ar
    32    25    21    1
    33    29    26    1
@<TRIPOS>MOLECULE
*****
 29 33 0 0 0
SMALL
GASTEIGER

@<TRIPOS>ATOM
      1 C         139.7648  142.3914  165.4313 C.ar    1  UNL1        0.0651
      2 C         138.5229  142.7807  164.6858 C.ar    1  UNL1        0.0177
      3 C         138.6172  143.6807  163.4895 C.ar    1  UNL1        0.0060
      4 C         139.9535  144.1913  163.0386 C.ar    1  UNL1        0.0537
      5 C         141.1956  143.8020  163.7841 C.ar    1  UNL1        0.0060
      6 C         141.1013  142.9021  164.9804 C.ar    1  UNL1        0.0177
      7 C         138.6667  139.3183  165.4381 C.3     1  UNL1        0.0722
      8 C         139.1658  140.0789  166.6307 C.ar    1  UNL1        0.1246
      9 N         139.2478  139.5605  168.0359 N.ar    1  UNL1       -0.2306
     10 C         139.8032  140.6526  168.9012 C.ar    1  UNL1        0.0986
     11 C         140.1047  140.7146  170.3693 C.ar    1  UNL1        0.0206
     12 C         140.6676  141.9700  170.9669 C.ar    1  UNL1        0.0016
     13 C         140.9289  143.1633  170.0966 C.ar    1  UNL1        0.0016
     14 C         140.6273  143.1014  168.6285 C.ar    1  UNL1        0.0191
     15 C         140.0645  141.8460  168.0309 C.ar    1  UNL1        0.0826
     16 N         139.6705  141.4914  166.6276 N.ar    1  UNL1       -0.2936
     17 C         140.0478  145.0913  161.8423 C.2     1  UNL1        0.2491
     18 O         139.9991  146.5801  162.0182 O.2     1  UNL1       -0.2699
     19 N         140.1908  144.5024  160.4702 N.am    1  UNL1       -0.2745
     20 C         140.2851  145.4025  159.2739 C.3     1  UNL1        0.1151
     21 C         140.2395  143.0136  160.2944 C.3     1  UNL1        0.0930
     22 C         139.0897  142.1341  159.9014 C.3     1  UNL1        0.0386
     23 C         139.5861  140.7198  159.8448 C.3     1  UNL1        0.0738
     24 N         141.0427  140.7251  160.2028 N.3     1  UNL1       -0.2725
     25 C         141.4466  142.1427  160.4806 C.3     1  UNL1        0.0921
     26 C         141.9382  139.5237  160.2710 C.3     1  UNL1        0.0576
     27 C         143.3650  139.2421  159.9034 C.3     1  UNL1        0.0160
     28 C         143.2048  137.8247  160.3674 C.3     1  UNL1        0.0028
     29 C         141.7780  138.1063  160.7349 C.3     1  UNL1        0.0160
@<TRIPOS>BOND
     1     7     8    1
     2     8     9   ar
     3     9    10   ar
     4    10    11   ar
     5    11    12   ar
     6    12    13   ar
     7    13    14   ar
     8    14    15   ar
     9    15    16   ar
    10    16     1    1
    11     1     2   ar
    12     2     3   ar
    13     3     4   ar
    14     4    17    1
    15    17    18    2
    16    17    19   am
    17    19    20    1
    18    21    19    1
    19    21    22    1
    20    22    23    1
    21    23    24    1
    22    24    26    1
    23    26    27    1
    24    27    28    1
    25    28    29    1
    26    24    25    1
    27     4     5   ar
    28     5     6   ar
    29    16     8   ar
    30     6     1   ar
    31    15    10   ar
    32    25    21    1
    33    29    26    1
@<TRIPOS>MOLECULE
*****
 29 33 0 0 0
SMALL
GASTEIGER

@<TRIPOS>ATOM
      1 C         139.7386  142.1537  165.7111 C.ar    1  UNL1        0.0651
      2 C         138.6957  142.0042  164.6435 C.ar    1  UNL1        0.0177
      3 C         138.7602  142.8523  163.4079 C.ar    1  UNL1        0.0060
      4 C         139.8678  143.8498  163.2399 C.ar    1  UNL1        0.0537
      5 C         140.9108  143.9993  164.3075 C.ar    1  UNL1        0.0060
      6 C         140.8462  143.1513  165.5431 C.ar    1  UNL1        0.0177
      7 C         138.3935  139.1888  165.9346 C.3     1  UNL1        0.0722
      8 C         139.0558  139.9428  167.0494 C.ar    1  UNL1        0.1246
      9 N         139.2161  139.4665  168.4627 N.ar    1  UNL1       -0.2306
     10 C         139.9335  140.5349  169.2334 C.ar    1  UNL1        0.0986
     11 C         140.3656  140.6195  170.6673 C.ar    1  UNL1        0.0206
     12 C         141.0806  141.8408  171.1642 C.ar    1  UNL1        0.0016
     13 C         141.3637  142.9775  170.2273 C.ar    1  UNL1        0.0016
     14 C         140.9316  142.8928  168.7934 C.ar    1  UNL1        0.0191
     15 C         140.2165  141.6715  168.2964 C.ar    1  UNL1        0.0826
     16 N         139.6741  141.3056  166.9467 N.ar    1  UNL1       -0.2936
     17 C         139.9323  144.6979  162.0043 C.2     1  UNL1        0.2491
     18 O         138.8803  145.7369  161.7522 O.2     1  UNL1       -0.2699
     19 N         141.0488  144.5068  161.0210 N.am    1  UNL1       -0.2745
     20 C         141.1132  145.3549  159.7854 C.3     1  UNL1        0.1151
     21 C         142.1007  143.4677  161.2732 C.3     1  UNL1        0.0930
     22 C         143.4956  143.7255  161.7608 C.3     1  UNL1        0.0386
     23 C         144.1994  142.4055  161.8711 C.3     1  UNL1        0.0738
     24 N         143.2396  141.3319  161.4517 N.3     1  UNL1       -0.2725
     25 C         141.9425  141.9884  161.0822 C.3     1  UNL1        0.0921
     26 C         143.5264  139.8602  161.4093 C.3     1  UNL1        0.0576
     27 C         143.7753  138.8590  160.3203 C.3     1  UNL1        0.0160
     28 C         143.9321  137.7789  161.3492 C.3     1  UNL1        0.0028
     29 C         143.6832  138.7800  162.4381 C.3     1  UNL1        0.0160
@<TRIPOS>BOND
     1     7     8    1
     2     8     9   ar
     3     9    10   ar
     4    10    11   ar
     5    11    12   ar
     6    12    13   ar
     7    13    14   ar
     8    14    15   ar
     9    15    16   ar
    10    16     1    1
    11     1     2   ar
    12     2     3   ar
    13     3     4   ar
    14     4    17    1
    15    17    18    2
    16    17    19   am
    17    19    20    1
    18    21    19    1
    19    21    22    1
    20    22    23    1
    21    23    24    1
    22    24    26    1
    23    26    27    1
    24    27    28    1
    25    28    29    1
    26    24    25    1
    27     4     5   ar
    28     5     6   ar
    29    16     8   ar
    30     6     1   ar
    31    15    10   ar
    32    25    21    1
    33    29    26    1
@<TRIPOS>MOLECULE
*****
 29 33 0 0 0
SMALL
GASTEIGER

@<TRIPOS>ATOM
      1 C         142.4454  142.7905  165.0765 C.ar    1  UNL1        0.0651
      2 C         143.1722  142.0503  166.1598 C.ar    1  UNL1        0.0177
      3 C         142.4645  141.7030  167.4360 C.ar    1  UNL1        0.0060
      4 C         141.0299  142.0961  167.6289 C.ar    1  UNL1        0.0537
      5 C         140.3029  142.8364  166.5456 C.ar    1  UNL1        0.0060
      6 C         141.0106  143.1836  165.2694 C.ar    1  UNL1        0.0177
      7 C         143.9627  145.6063  164.4295 C.3     1  UNL1        0.0722
      8 C         143.8505  144.4320  163.5029 C.ar    1  UNL1        0.1246
      9 N         144.4160  144.3457  162.1163 N.ar    1  UNL1       -0.2306
     10 C         144.0681  142.9982  161.5568 C.ar    1  UNL1        0.0986
     11 C         144.3612  142.3545  160.2340 C.ar    1  UNL1        0.0206
     12 C         143.8738  140.9643  159.9520 C.ar    1  UNL1        0.0016
     13 C         143.0932  140.2177  160.9928 C.ar    1  UNL1        0.0016
     14 C         142.8001  140.8613  162.3156 C.ar    1  UNL1        0.0191
     15 C         143.2875  142.2516  162.5976 C.ar    1  UNL1        0.0826
     16 N         143.1531  143.1377  163.8004 N.ar    1  UNL1       -0.2936
     17 C         140.3222  141.7489  168.9050 C.2     1  UNL1        0.2491
     18 O         140.5387  142.5822  170.1333 O.2     1  UNL1       -0.2699
     19 N         139.3980  140.5684  168.9529 N.am    1  UNL1       -0.2745
     20 C         138.6903  140.2212  170.2291 C.3     1  UNL1        0.1151
     21 C         139.1815  139.7351  167.7246 C.3     1  UNL1        0.0930
     22 C         137.9193  139.0103  167.3621 C.3     1  UNL1        0.0386
     23 C         138.1469  138.3075  166.0566 C.3     1  UNL1        0.0738
     24 N         139.5498  138.5980  165.6123 N.3     1  UNL1       -0.2725
     25 C         140.1892  139.4803  166.6431 C.3     1  UNL1        0.0921
     26 C         140.1993  138.0946  164.3574 C.3     1  UNL1        0.0576
     27 C         139.7728  137.9511  162.9264 C.3     1  UNL1        0.0160
     28 C         141.1177  137.3826  162.5826 C.3     1  UNL1        0.0028
     29 C         141.5441  137.5261  164.0136 C.3     1  UNL1        0.0160
@<TRIPOS>BOND
     1     7     8    1
     2     8     9   ar
     3     9    10   ar
     4    10    11   ar
     5    11    12   ar
     6    12    13   ar
     7    13    14   ar
     8    14    15   ar
     9    15    16   ar
    10    16     1    1
    11     1     2   ar
    12     2     3   ar
    13     3     4   ar
    14     4    17    1
    15    17    18    2
    16    17    19   am
    17    19    20    1
    18    21    19    1
    19    21    22    1
    20    22    23    1
    21    23    24    1
    22    24    26    1
    23    26    27    1
    24    27    28    1
    25    28    29    1
    26    24    25    1
    27     4     5   ar
    28     5     6   ar
    29    16     8   ar
    30     6     1   ar
    31    15    10   ar
    32    25    21    1
    33    29    26    1
@<TRIPOS>MOLECULE
*****
 29 33 0 0 0
SMALL
GASTEIGER

@<TRIPOS>ATOM
      1 C         140.6776  139.5471  166.0702 C.ar    1  UNL1        0.0651
      2 C         139.2208  139.9022  166.0315 C.ar    1  UNL1        0.0177
      3 C         138.4558  139.7920  164.7460 C.ar    1  UNL1        0.0060
      4 C         139.1476  139.3266  163.4991 C.ar    1  UNL1        0.0537
      5 C         140.6044  138.9714  163.5377 C.ar    1  UNL1        0.0060
      6 C         141.3694  139.0816  164.8232 C.ar    1  UNL1        0.0177
      7 C         143.5679  138.1719  166.7062 C.3     1  UNL1        0.0722
      8 C         142.7712  139.0252  167.6481 C.ar    1  UNL1        0.1246
      9 N         143.1630  139.3962  169.0476 N.ar    1  UNL1       -0.2306
     10 C         142.0767  140.2576  169.6203 C.ar    1  UNL1        0.0986
     11 C         141.9183  140.9158  170.9588 C.ar    1  UNL1        0.0206
     12 C         140.6967  141.7354  171.2516 C.ar    1  UNL1        0.0016
     13 C         139.6334  141.8968  170.2059 C.ar    1  UNL1        0.0016
     14 C         139.7918  141.2385  168.8674 C.ar    1  UNL1        0.0191
     15 C         141.0134  140.4189  168.5746 C.ar    1  UNL1        0.0826
     16 N         141.4426  139.6573  167.3557 N.ar    1  UNL1       -0.2936
     17 C         138.3825  139.2164  162.2136 C.2     1  UNL1        0.2491
     18 O         137.7925  137.9001  161.8025 O.2     1  UNL1       -0.2699
     19 N         138.2075  140.4226  161.3392 N.am    1  UNL1       -0.2745
     20 C         137.4424  140.3123  160.0536 C.3     1  UNL1        0.1151
     21 C         138.7975  141.7389  161.7503 C.3     1  UNL1        0.0930
     22 C         138.0366  143.0082  161.9950 C.3     1  UNL1        0.0386
     23 C         139.0208  144.0708  162.3849 C.3     1  UNL1        0.0738
     24 N         140.3901  143.4584  162.3811 N.3     1  UNL1       -0.2725
     25 C         140.2520  142.0171  161.9890 C.3     1  UNL1        0.0921
     26 C         141.6722  144.1633  162.7116 C.3     1  UNL1        0.0576
     27 C         143.0983  144.0361  162.2643 C.3     1  UNL1        0.0160
     28 C         143.4854  145.1602  163.1788 C.3     1  UNL1        0.0028
     29 C         142.0593  145.2875  163.6261 C.3     1  UNL1        0.0160
@<TRIPOS>BOND
     1     7     8    1
     2     8     9   ar
     3     9    10   ar
     4    10    11   ar
     5    11    12   ar
     6    12    13   ar
     7    13    14   ar
     8    14    15   ar
     9    15    16   ar
    10    16     1    1
    11     1     2   ar
    12     2     3   ar
    13     3     4   ar
    14     4    17    1
    15    17    18    2
    16    17    19   am
    17    19    20    1
    18    21    19    1
    19    21    22    1
    20    22    23    1
    21    23    24    1
    22    24    26    1
    23    26    27    1
    24    27    28    1
    25    28    29    1
    26    24    25    1
    27     4     5   ar
    28     5     6   ar
    29    16     8   ar
    30     6     1   ar
    31    15    10   ar
    32    25    21    1
    33    29    26    1
@<TRIPOS>MOLECULE
*****
 29 33 0 0 0
SMALL
GASTEIGER

@<TRIPOS>ATOM
      1 C         141.1943  139.8813  165.7942 C.ar    1  UNL1        0.0651
      2 C         140.2513  139.8938  164.6278 C.ar    1  UNL1        0.0177
      3 C         140.7512  139.5522  163.2554 C.ar    1  UNL1        0.0060
      4 C         142.1941  139.1981  163.0494 C.ar    1  UNL1        0.0537
      5 C         143.1372  139.1856  164.2157 C.ar    1  UNL1        0.0060
      6 C         142.6373  139.5272  165.5881 C.ar    1  UNL1        0.0177
      7 C         138.3148  139.0101  167.0587 C.3     1  UNL1        0.0722
      8 C         139.3709  139.8224  167.7478 C.ar    1  UNL1        0.1246
      9 N         139.2888  140.3770  169.1391 N.ar    1  UNL1       -0.2306
     10 C         140.5617  141.1201  169.4178 C.ar    1  UNL1        0.0986
     11 C         141.0419  141.8712  170.6241 C.ar    1  UNL1        0.0206
     12 C         142.3908  142.5270  170.6112 C.ar    1  UNL1        0.0016
     13 C         143.2595  142.4318  169.3921 C.ar    1  UNL1        0.0016
     14 C         142.7793  141.6807  168.1858 C.ar    1  UNL1        0.0191
     15 C         141.4304  141.0249  168.1986 C.ar    1  UNL1        0.0826
     16 N         140.6944  140.2229  167.1666 N.ar    1  UNL1       -0.2936
     17 C         142.6940  138.8565  161.6770 C.2     1  UNL1        0.2491
     18 O         142.8259  137.4210  161.2627 O.2     1  UNL1       -0.2699
     19 N         143.0619  139.9505  160.7189 N.am    1  UNL1       -0.2745
     20 C         143.5617  139.6088  159.3465 C.3     1  UNL1        0.1151
     21 C         142.9299  141.3861  161.1333 C.3     1  UNL1        0.0930
     22 C         144.0130  142.2343  161.7311 C.3     1  UNL1        0.0386
     23 C         143.4442  143.5979  161.9899 C.3     1  UNL1        0.0738
     24 N         142.0095  143.5925  161.5521 N.3     1  UNL1       -0.2725
     25 C         141.6917  142.2255  161.0227 C.3     1  UNL1        0.0921
     26 C         141.0595  144.7507  161.6300 C.3     1  UNL1        0.0576
     27 C         140.4904  145.5829  162.7407 C.3     1  UNL1        0.0160
     28 C         139.7160  146.3886  161.7402 C.3     1  UNL1        0.0028
     29 C         140.2851  145.5564  160.6295 C.3     1  UNL1        0.0160
@<TRIPOS>BOND
     1     7     8    1
     2     8     9   ar
     3     9    10   ar
     4    10    11   ar
     5    11    12   ar
     6    12    13   ar
     7    13    14   ar
     8    14    15   ar
     9    15    16   ar
    10    16     1    1
    11     1     2   ar
    12     2     3   ar
    13     3     4   ar
    14     4    17    1
    15    17    18    2
    16    17    19   am
    17    19    20    1
    18    21    19    1
    19    21    22    1
    20    22    23    1
    21    23    24    1
    22    24    26    1
    23    26    27    1
    24    27    28    1
    25    28    29    1
    26    24    25    1
    27     4     5   ar
    28     5     6   ar
    29    16     8   ar
    30     6     1   ar
    31    15    10   ar
    32    25    21    1
    33    29    26    1
@<TRIPOS>MOLECULE
*****
 29 33 0 0 0
SMALL
GASTEIGER

@<TRIPOS>ATOM
      1 C         141.3417  142.1719  165.5842 C.ar    1  UNL1        0.0651
      2 C         142.2165  143.2567  165.0293 C.ar    1  UNL1        0.0177
      3 C         141.7838  144.0205  163.8130 C.ar    1  UNL1        0.0060
      4 C         140.4763  143.6997  163.1516 C.ar    1  UNL1        0.0537
      5 C         139.6015  142.6149  163.7065 C.ar    1  UNL1        0.0060
      6 C         140.0341  141.8510  164.9228 C.ar    1  UNL1        0.0177
      7 C         143.2751  139.5431  165.6111 C.3     1  UNL1        0.0722
      8 C         142.6630  140.1997  166.8128 C.ar    1  UNL1        0.1246
      9 N         142.8321  139.7633  168.2379 N.ar    1  UNL1       -0.2306
     10 C         142.0480  140.7019  169.1063 C.ar    1  UNL1        0.0986
     11 C         141.8448  140.7623  170.5912 C.ar    1  UNL1        0.0206
     12 C         140.9878  141.8392  171.1878 C.ar    1  UNL1        0.0016
     13 C         140.3340  142.8557  170.2993 C.ar    1  UNL1        0.0016
     14 C         140.5372  142.7953  168.8144 C.ar    1  UNL1        0.0191
     15 C         141.3942  141.7184  168.2179 C.ar    1  UNL1        0.0826
     16 N         141.7743  141.4081  166.8005 N.ar    1  UNL1       -0.2936
     17 C         140.0437  144.4636  161.9353 C.2     1  UNL1        0.2491
     18 O         139.0167  145.5499  162.0581 O.2     1  UNL1       -0.2699
     19 N         140.6380  144.1410  160.5964 N.am    1  UNL1       -0.2745
     20 C         140.2053  144.9050  159.3802 C.3     1  UNL1        0.1151
     21 C         141.6649  143.0546  160.4737 C.3     1  UNL1        0.0930
     22 C         143.1455  143.2524  160.3368 C.3     1  UNL1        0.0386
     23 C         143.7872  141.8997  160.2449 C.3     1  UNL1        0.0738
     24 N         142.7033  140.8660  160.3251 N.3     1  UNL1       -0.2725
     25 C         141.3916  141.5798  160.4665 C.3     1  UNL1        0.0921
     26 C         142.8971  139.3795  160.2729 C.3     1  UNL1        0.0576
     27 C         143.4514  138.3485  161.2110 C.3     1  UNL1        0.0160
     28 C         143.1711  137.2772  160.1993 C.3     1  UNL1        0.0028
     29 C         142.6167  138.3081  159.2612 C.3     1  UNL1        0.0160
@<TRIPOS>BOND
     1     7     8    1
     2     8     9   ar
     3     9    10   ar
     4    10    11   ar
     5    11    12   ar
     6    12    13   ar
     7    13    14   ar
     8    14    15   ar
     9    15    16   ar
    10    16     1    1
    11     1     2   ar
    12     2     3   ar
    13     3     4   ar
    14     4    17    1
    15    17    18    2
    16    17    19   am
    17    19    20    1
    18    21    19    1
    19    21    22    1
    20    22    23    1
    21    23    24    1
    22    24    26    1
    23    26    27    1
    24    27    28    1
    25    28    29    1
    26    24    25    1
    27     4     5   ar
    28     5     6   ar
    29    16     8   ar
    30     6     1   ar
    31    15    10   ar
    32    25    21    1
    33    29    26    1
