@<TRIPOS>MOLECULE
*****
 37 41 0 0 0
SMALL
GASTEIGER

@<TRIPOS>ATOM
      1 C         138.0142  142.5642  164.8217 C.3     1  UNL1        0.0768
      2 N         138.2459  141.1066  164.5538 N.3     1  UNL1       -0.2724
      3 C         138.2985  140.0181  165.5846 C.3     1  UNL1        0.0721
      4 C         138.5508  138.7204  164.8759 C.3     1  UNL1        0.0187
      5 C         138.6540  139.0067  163.4071 C.3     1  UNL1        0.0178
      6 C         138.4656  140.4815  163.2080 C.3     1  UNL1        0.0721
      7 C         138.9021  137.9959  162.3271 C.3     1  UNL1        0.0077
      8 C         140.2144  137.9811  161.6008 C.3     1  UNL1        0.0459
      9 C         141.4368  138.5611  162.2487 C.ar    1  UNL1        0.0603
     10 C         141.9629  137.9690  163.5225 C.ar    1  UNL1        0.0145
     11 C         143.1852  138.5490  164.1703 C.ar    1  UNL1       -0.0003
     12 C         143.8813  139.7211  163.5444 C.ar    1  UNL1        0.0092
     13 C         143.3551  140.3131  162.2706 C.ar    1  UNL1        0.1240
     14 N         142.1328  139.7331  161.6227 N.ar    1  UNL1       -0.2356
     15 N         144.0511  141.4851  161.6446 N.pl3   1  UNL1       -0.3184
     16 C         145.2734  142.0651  162.2925 C.3     1  UNL1        0.0885
     17 C         145.7996  141.4730  163.5663 C.3     1  UNL1        0.0260
     18 C         145.1035  140.3010  164.1922 C.3     1  UNL1        0.0309
     19 H         143.7058  141.8737  160.8086 H       1  UNL1        0.1482
     20 C         139.1372  143.5448  164.6568 C.3     1  UNL1        0.0438
     21 C         142.0247  142.0896  166.9579 C.ar    1  UNL1        0.0338
     22 C         143.2415  142.5475  166.2096 C.ar    1  UNL1        0.0030
     23 C         143.0901  143.3378  164.9437 C.ar    1  UNL1       -0.0002
     24 C         141.7221  143.6702  164.4261 C.ar    1  UNL1       -0.0042
     25 C         140.5053  143.2123  165.1744 C.ar    1  UNL1       -0.0207
     26 C         140.6567  142.4221  166.4403 C.ar    1  UNL1       -0.0012
     27 C         142.9175  138.1202  170.3235 C.3     1  UNL1        0.0538
     28 C         142.5864  139.4748  169.7709 C.ar    1  UNL1        0.0781
     29 C         142.2315  140.6916  170.5729 C.ar    1  UNL1        0.0919
     30 N         141.9778  141.8193  169.6168 N.ar    1  UNL1       -0.3085
     31 C         141.5935  143.2208  169.9885 C.3     1  UNL1        0.1320
     32 C         142.1761  141.2993  168.2238 C.ar    1  UNL1        0.1435
     33 N         142.5522  139.8504  168.3190 N.ar    1  UNL1       -0.2311
     34 C         138.8922  144.8578  163.9743 C.3     1  UNL1        0.0474
     35 C         138.7531  144.9129  162.4817 C.2     1  UNL1        0.0507
     36 O         138.1212  143.7693  161.7447 O.co2   1  UNL1       -0.5492
     37 O         139.2458  146.1114  161.7262 O.co2   1  UNL1       -0.5492
@<TRIPOS>UNITY_ATOM_ATTR
36 1
charge -1
@<TRIPOS>BOND
     1    27    28    1
     2    28    29   ar
     3    29    30   ar
     4    30    31    1
     5    30    32   ar
     6    32    21    1
     7    21    22   ar
     8    22    23   ar
     9    23    24   ar
    10    24    25   ar
    11    25    20    1
    12    20    34    1
    13    34    35    1
    14    35    36   ar
    15    35    37   ar
    16    20     1    1
    17     1     2    1
    18     2     3    1
    19     3     4    1
    20     4     5    1
    21     5     7    1
    22     7     8    1
    23     8     9    1
    24     9    10   ar
    25    10    11   ar
    26    11    12   ar
    27    12    13   ar
    28    13    14   ar
    29    13    15    1
    30    15    16    1
    31    16    17    1
    32    17    18    1
    33     5     6    1
    34    25    26   ar
    35    32    33   ar
    36    33    28   ar
    37    26    21   ar
    38     6     2    1
    39    14     9   ar
    40    18    12    1
    41    15    19    1
@<TRIPOS>MOLECULE
*****
 37 41 0 0 0
SMALL
GASTEIGER

@<TRIPOS>ATOM
      1 C         142.2135  137.7195  164.1778 C.3     1  UNL1        0.0768
      2 N         143.1330  138.7902  163.6698 N.3     1  UNL1       -0.2724
      3 C         143.4795  139.0461  162.2329 C.3     1  UNL1        0.0721
      4 C         144.4281  140.2070  162.1845 C.3     1  UNL1        0.0187
      5 C         144.6679  140.6687  163.5914 C.3     1  UNL1        0.0178
      6 C         143.8674  139.7930  164.5093 C.3     1  UNL1        0.0721
      7 C         145.5527  141.8062  164.0074 C.3     1  UNL1        0.0077
      8 C         144.9804  142.9579  164.7794 C.3     1  UNL1        0.0459
      9 C         143.6229  143.4933  164.4317 C.ar    1  UNL1        0.0603
     10 C         143.4882  144.6052  163.4340 C.ar    1  UNL1        0.0145
     11 C         142.1308  145.1405  163.0864 C.ar    1  UNL1       -0.0003
     12 C         140.9081  144.5639  163.7365 C.ar    1  UNL1        0.0092
     13 C         141.0428  143.4520  164.7342 C.ar    1  UNL1        0.1240
     14 N         142.4003  142.9167  165.0818 N.ar    1  UNL1       -0.2356
     15 N         139.8202  142.8754  165.3843 N.pl3   1  UNL1       -0.3184
     16 C         138.4628  143.4107  165.0367 C.3     1  UNL1        0.0885
     17 C         138.3281  144.5227  164.0390 C.3     1  UNL1        0.0260
     18 C         139.5507  145.0993  163.3889 C.3     1  UNL1        0.0309
     19 H         139.9087  142.1456  166.0392 H       1  UNL1        0.1482
     20 C         140.7275  137.8949  164.0723 C.3     1  UNL1        0.0438
     21 C         139.7334  139.8144  167.4006 C.ar    1  UNL1        0.0338
     22 C         138.3632  139.2576  167.6505 C.ar    1  UNL1        0.0030
     23 C         137.7810  138.2465  166.7077 C.ar    1  UNL1       -0.0002
     24 C         138.5692  137.7923  165.5150 C.ar    1  UNL1       -0.0042
     25 C         139.9394  138.3491  165.2651 C.ar    1  UNL1       -0.0207
     26 C         140.5215  139.3602  166.2079 C.ar    1  UNL1       -0.0012
     27 C         140.5974  144.3040  170.0423 C.3     1  UNL1        0.0538
     28 C         140.7127  142.8890  169.5577 C.ar    1  UNL1        0.0781
     29 C         141.7101  141.8735  170.0309 C.ar    1  UNL1        0.0919
     30 N         141.4646  140.5981  169.2805 N.ar    1  UNL1       -0.3085
     31 C         142.2333  139.3198  169.4392 C.3     1  UNL1        0.1320
     32 C         140.3155  140.8254  168.3434 C.ar    1  UNL1        0.1435
     33 N         139.8509  142.2413  168.5148 N.ar    1  UNL1       -0.2311
     34 C         140.0296  137.6160  162.7742 C.3     1  UNL1        0.0474
     35 C         139.3016  138.7175  162.0623 C.2     1  UNL1        0.0507
     36 O         140.0707  139.8448  161.4396 O.co2   1  UNL1       -0.5492
     37 O         137.8045  138.6917  161.9732 O.co2   1  UNL1       -0.5492
@<TRIPOS>UNITY_ATOM_ATTR
36 1
charge -1
@<TRIPOS>BOND
     1    27    28    1
     2    28    29   ar
     3    29    30   ar
     4    30    31    1
     5    30    32   ar
     6    32    21    1
     7    21    22   ar
     8    22    23   ar
     9    23    24   ar
    10    24    25   ar
    11    25    20    1
    12    20    34    1
    13    34    35    1
    14    35    36   ar
    15    35    37   ar
    16    20     1    1
    17     1     2    1
    18     2     3    1
    19     3     4    1
    20     4     5    1
    21     5     7    1
    22     7     8    1
    23     8     9    1
    24     9    10   ar
    25    10    11   ar
    26    11    12   ar
    27    12    13   ar
    28    13    14   ar
    29    13    15    1
    30    15    16    1
    31    16    17    1
    32    17    18    1
    33     5     6    1
    34    25    26   ar
    35    32    33   ar
    36    33    28   ar
    37    26    21   ar
    38     6     2    1
    39    14     9   ar
    40    18    12    1
    41    15    19    1
@<TRIPOS>MOLECULE
*****
 37 41 0 0 0
SMALL
GASTEIGER

@<TRIPOS>ATOM
      1 C         138.1369  138.9637  163.1831 C.3     1  UNL1        0.0768
      2 N         138.0103  140.4454  162.9866 N.3     1  UNL1       -0.2724
      3 C         138.0449  141.1666  161.6718 C.3     1  UNL1        0.0721
      4 C         137.8828  142.6330  161.9430 C.3     1  UNL1        0.0187
      5 C         137.7480  142.8180  163.4254 C.3     1  UNL1        0.0178
      6 C         137.8268  141.4660  164.0704 C.3     1  UNL1        0.0721
      7 C         137.5663  144.1255  164.1378 C.3     1  UNL1        0.0077
      8 C         138.5957  144.5914  165.1243 C.3     1  UNL1        0.0459
      9 C         139.9584  143.9647  165.1387 C.ar    1  UNL1        0.0603
     10 C         140.3287  142.9998  166.2259 C.ar    1  UNL1        0.0145
     11 C         141.6913  142.3730  166.2404 C.ar    1  UNL1       -0.0003
     12 C         142.6839  142.7112  165.1676 C.ar    1  UNL1        0.0092
     13 C         142.3136  143.6760  164.0805 C.ar    1  UNL1        0.1240
     14 N         140.9509  144.3028  164.0660 N.ar    1  UNL1       -0.2356
     15 N         143.3061  144.0142  163.0078 N.pl3   1  UNL1       -0.3184
     16 C         144.6687  143.3874  163.0223 C.3     1  UNL1        0.0885
     17 C         145.0390  142.4225  164.1094 C.3     1  UNL1        0.0260
     18 C         144.0465  142.0844  165.1821 C.3     1  UNL1        0.0309
     19 H         143.0631  144.6474  162.2942 H       1  UNL1        0.1482
     20 C         139.1156  138.4205  164.1817 C.3     1  UNL1        0.0438
     21 C         142.5680  139.3635  162.4665 C.ar    1  UNL1        0.0338
     22 C         143.5311  139.0354  163.5687 C.ar    1  UNL1        0.0030
     23 C         143.0223  138.5024  164.8752 C.ar    1  UNL1       -0.0002
     24 C         141.5505  138.2974  165.0795 C.ar    1  UNL1       -0.0042
     25 C         140.5874  138.6255  163.9773 C.ar    1  UNL1       -0.0207
     26 C         141.0962  139.1586  162.6708 C.ar    1  UNL1       -0.0012
     27 C         144.4398  142.6268  158.7613 C.3     1  UNL1        0.0538
     28 C         143.9371  141.3965  159.4568 C.ar    1  UNL1        0.0781
     29 C         143.7820  140.0372  158.8419 C.ar    1  UNL1        0.0919
     30 N         143.2503  139.1102  159.8944 N.ar    1  UNL1       -0.3085
     31 C         142.9456  137.6526  159.7133 C.3     1  UNL1        0.1320
     32 C         143.0767  139.8966  161.1599 C.ar    1  UNL1        0.1435
     33 N         143.5012  141.3096  160.8895 N.ar    1  UNL1       -0.2311
     34 C         138.6224  137.6724  165.3846 C.3     1  UNL1        0.0474
     35 C         138.1504  138.4240  166.5938 C.2     1  UNL1        0.0507
     36 O         136.9869  137.9105  167.3893 O.co2   1  UNL1       -0.5492
     37 O         138.8418  139.6892  167.0076 O.co2   1  UNL1       -0.5492
@<TRIPOS>UNITY_ATOM_ATTR
36 1
charge -1
@<TRIPOS>BOND
     1    27    28    1
     2    28    29   ar
     3    29    30   ar
     4    30    31    1
     5    30    32   ar
     6    32    21    1
     7    21    22   ar
     8    22    23   ar
     9    23    24   ar
    10    24    25   ar
    11    25    20    1
    12    20    34    1
    13    34    35    1
    14    35    36   ar
    15    35    37   ar
    16    20     1    1
    17     1     2    1
    18     2     3    1
    19     3     4    1
    20     4     5    1
    21     5     7    1
    22     7     8    1
    23     8     9    1
    24     9    10   ar
    25    10    11   ar
    26    11    12   ar
    27    12    13   ar
    28    13    14   ar
    29    13    15    1
    30    15    16    1
    31    16    17    1
    32    17    18    1
    33     5     6    1
    34    25    26   ar
    35    32    33   ar
    36    33    28   ar
    37    26    21   ar
    38     6     2    1
    39    14     9   ar
    40    18    12    1
    41    15    19    1
@<TRIPOS>MOLECULE
*****
 37 41 0 0 0
SMALL
GASTEIGER

@<TRIPOS>ATOM
      1 C         139.5413  138.1321  160.7352 C.3     1  UNL1        0.0768
      2 N         139.7338  137.8265  162.1910 N.3     1  UNL1       -0.2724
      3 C         141.0422  137.5388  162.8660 C.3     1  UNL1        0.0721
      4 C         140.7688  137.2894  164.3197 C.3     1  UNL1        0.0187
      5 C         139.2916  137.4229  164.5431 C.3     1  UNL1        0.0178
      6 C         138.6519  137.7548  163.2275 C.3     1  UNL1        0.0721
      7 C         138.5791  137.2541  165.8522 C.3     1  UNL1        0.0077
      8 C         137.9066  138.4296  166.4970 C.3     1  UNL1        0.0459
      9 C         138.7313  139.5391  167.0792 C.ar    1  UNL1        0.0603
     10 C         139.3172  140.5885  166.1817 C.ar    1  UNL1        0.0145
     11 C         140.1419  141.6979  166.7638 C.ar    1  UNL1       -0.0003
     12 C         140.3807  141.7581  168.2436 C.ar    1  UNL1        0.0092
     13 C         139.7947  140.7088  169.1411 C.ar    1  UNL1        0.1240
     14 N         138.9700  139.5992  168.5589 N.ar    1  UNL1       -0.2356
     15 N         140.0334  140.7689  170.6207 N.pl3   1  UNL1       -0.3184
     16 C         140.8581  141.8784  171.2028 C.3     1  UNL1        0.0885
     17 C         141.4441  142.9277  170.3053 C.3     1  UNL1        0.0260
     18 C         141.2053  142.8676  168.8257 C.3     1  UNL1        0.0309
     19 H         139.6488  140.0802  171.2097 H       1  UNL1        0.1482
     20 C         139.3341  139.5486  160.2872 C.3     1  UNL1        0.0438
     21 C         140.0999  142.4821  162.8481 C.ar    1  UNL1        0.0338
     22 C         138.7171  142.8040  163.3322 C.ar    1  UNL1        0.0030
     23 C         137.5400  142.0408  162.8013 C.ar    1  UNL1       -0.0002
     24 C         137.7457  140.9556  161.7863 C.ar    1  UNL1       -0.0042
     25 C         139.1285  140.6338  161.3022 C.ar    1  UNL1       -0.0207
     26 C         140.3056  141.3970  161.8331 C.ar    1  UNL1       -0.0012
     27 C         144.5855  143.6862  165.3602 C.3     1  UNL1        0.0538
     28 C         143.3388  143.7989  164.5336 C.ar    1  UNL1        0.0781
     29 C         142.8379  145.0410  163.8583 C.ar    1  UNL1        0.0919
     30 N         141.5637  144.6990  163.1446 N.ar    1  UNL1       -0.3085
     31 C         140.7236  145.6445  162.3382 C.3     1  UNL1        0.1320
     32 C         141.2770  143.2454  163.3790 C.ar    1  UNL1        0.1435
     33 N         142.3740  142.6891  164.2374 N.ar    1  UNL1       -0.2311
     34 C         139.3326  139.8799  158.8242 C.3     1  UNL1        0.0474
     35 C         139.0750  141.2875  158.3743 C.2     1  UNL1        0.0507
     36 O         137.7005  141.6936  157.9315 O.co2   1  UNL1       -0.5492
     37 O         140.1917  142.2889  158.3671 O.co2   1  UNL1       -0.5492
@<TRIPOS>UNITY_ATOM_ATTR
36 1
charge -1
@<TRIPOS>BOND
     1    27    28    1
     2    28    29   ar
     3    29    30   ar
     4    30    31    1
     5    30    32   ar
     6    32    21    1
     7    21    22   ar
     8    22    23   ar
     9    23    24   ar
    10    24    25   ar
    11    25    20    1
    12    20    34    1
    13    34    35    1
    14    35    36   ar
    15    35    37   ar
    16    20     1    1
    17     1     2    1
    18     2     3    1
    19     3     4    1
    20     4     5    1
    21     5     7    1
    22     7     8    1
    23     8     9    1
    24     9    10   ar
    25    10    11   ar
    26    11    12   ar
    27    12    13   ar
    28    13    14   ar
    29    13    15    1
    30    15    16    1
    31    16    17    1
    32    17    18    1
    33     5     6    1
    34    25    26   ar
    35    32    33   ar
    36    33    28   ar
    37    26    21   ar
    38     6     2    1
    39    14     9   ar
    40    18    12    1
    41    15    19    1
@<TRIPOS>MOLECULE
*****
 37 41 0 0 0
SMALL
GASTEIGER

@<TRIPOS>ATOM
      1 C         139.0555  144.1290  163.2054 C.3     1  UNL1        0.0768
      2 N         138.5971  142.7778  162.7428 N.3     1  UNL1       -0.2724
      3 C         137.4312  142.0077  163.2885 C.3     1  UNL1        0.0721
      4 C         137.3376  140.7134  162.5363 C.3     1  UNL1        0.0187
      5 C         138.4456  140.6834  161.5257 C.3     1  UNL1        0.0178
      6 C         139.2240  141.9593  161.6533 C.3     1  UNL1        0.0721
      7 C         138.7260  139.5727  160.5574 C.3     1  UNL1        0.0077
      8 C         139.2766  138.2679  161.0519 C.3     1  UNL1        0.0459
      9 C         140.2024  138.2435  162.2318 C.ar    1  UNL1        0.0603
     10 C         139.7784  137.5714  163.5040 C.ar    1  UNL1        0.0145
     11 C         140.7042  137.5470  164.6840 C.ar    1  UNL1       -0.0003
     12 C         142.0541  138.1946  164.5917 C.ar    1  UNL1        0.0092
     13 C         142.4781  138.8667  163.3195 C.ar    1  UNL1        0.1240
     14 N         141.5522  138.8912  162.1396 N.ar    1  UNL1       -0.2356
     15 N         143.8279  139.5144  163.2273 N.pl3   1  UNL1       -0.3184
     16 C         144.7536  139.4899  164.4072 C.3     1  UNL1        0.0885
     17 C         144.3296  138.8178  165.6794 C.3     1  UNL1        0.0260
     18 C         142.9798  138.1702  165.7717 C.3     1  UNL1        0.0309
     19 H         144.1062  139.9555  162.3923 H       1  UNL1        0.1482
     20 C         140.4848  144.5422  163.0141 C.3     1  UNL1        0.0438
     21 C         142.2665  142.4164  165.8525 C.ar    1  UNL1        0.0338
     22 C         143.6980  142.8157  165.6494 C.ar    1  UNL1        0.0030
     23 C         144.0585  143.7905  164.5678 C.ar    1  UNL1       -0.0002
     24 C         142.9874  144.3660  163.6894 C.ar    1  UNL1       -0.0042
     25 C         141.5559  143.9666  163.8926 C.ar    1  UNL1       -0.0207
     26 C         141.1954  142.9919  164.9741 C.ar    1  UNL1       -0.0012
     27 C         142.5107  139.3981  170.1783 C.3     1  UNL1        0.0538
     28 C         142.0182  140.0542  168.9224 C.ar    1  UNL1        0.0781
     29 C         140.6842  139.8288  168.2746 C.ar    1  UNL1        0.0919
     30 N         140.6148  140.6862  167.0458 N.ar    1  UNL1       -0.3085
     31 C         139.4575  140.7730  166.0954 C.3     1  UNL1        0.1320
     32 C         141.9060  141.4416  166.9341 C.ar    1  UNL1        0.1435
     33 N         142.7733  141.0510  168.0939 N.ar    1  UNL1       -0.2311
     34 C         140.8430  145.5308  161.9444 C.3     1  UNL1        0.0474
     35 C         140.9467  145.0855  160.5158 C.2     1  UNL1        0.0507
     36 O         139.7088  144.9582  159.6781 O.co2   1  UNL1       -0.5492
     37 O         142.2881  144.7674  159.9248 O.co2   1  UNL1       -0.5492
@<TRIPOS>UNITY_ATOM_ATTR
36 1
charge -1
@<TRIPOS>BOND
     1    27    28    1
     2    28    29   ar
     3    29    30   ar
     4    30    31    1
     5    30    32   ar
     6    32    21    1
     7    21    22   ar
     8    22    23   ar
     9    23    24   ar
    10    24    25   ar
    11    25    20    1
    12    20    34    1
    13    34    35    1
    14    35    36   ar
    15    35    37   ar
    16    20     1    1
    17     1     2    1
    18     2     3    1
    19     3     4    1
    20     4     5    1
    21     5     7    1
    22     7     8    1
    23     8     9    1
    24     9    10   ar
    25    10    11   ar
    26    11    12   ar
    27    12    13   ar
    28    13    14   ar
    29    13    15    1
    30    15    16    1
    31    16    17    1
    32    17    18    1
    33     5     6    1
    34    25    26   ar
    35    32    33   ar
    36    33    28   ar
    37    26    21   ar
    38     6     2    1
    39    14     9   ar
    40    18    12    1
    41    15    19    1
@<TRIPOS>MOLECULE
*****
 37 41 0 0 0
SMALL
GASTEIGER

@<TRIPOS>ATOM
      1 C         142.4266  141.2425  167.6673 C.3     1  UNL1        0.0768
      2 N         143.3055  141.7095  166.5451 N.3     1  UNL1       -0.2724
      3 C         143.9138  143.0741  166.4107 C.3     1  UNL1        0.0721
      4 C         144.7147  143.1018  165.1428 C.3     1  UNL1        0.0187
      5 C         144.6016  141.7544  164.4935 C.3     1  UNL1        0.0178
      6 C         143.7306  140.8939  165.3602 C.3     1  UNL1        0.0721
      7 C         145.2462  141.3402  163.2040 C.3     1  UNL1        0.0077
      8 C         144.5280  141.5528  161.9044 C.3     1  UNL1        0.0459
      9 C         143.1371  142.1146  161.8992 C.ar    1  UNL1        0.0603
     10 C         141.9556  141.1914  161.8589 C.ar    1  UNL1        0.0145
     11 C         140.5648  141.7531  161.8537 C.ar    1  UNL1       -0.0003
     12 C         140.3554  143.2381  161.8888 C.ar    1  UNL1        0.0092
     13 C         141.5370  144.1613  161.9291 C.ar    1  UNL1        0.1240
     14 N         142.9279  143.5995  161.9343 N.ar    1  UNL1       -0.2356
     15 N         141.3278  145.6461  161.9642 N.pl3   1  UNL1       -0.3184
     16 C         139.9370  146.2078  161.9590 C.3     1  UNL1        0.0885
     17 C         138.7554  145.2847  161.9187 C.3     1  UNL1        0.0260
     18 C         138.9646  143.7998  161.8836 C.3     1  UNL1        0.0309
     19 H         142.1033  146.2521  161.9906 H       1  UNL1        0.1482
     20 C         140.9657  141.5828  167.6671 C.3     1  UNL1        0.0438
     21 C         138.8484  139.3921  165.1238 C.ar    1  UNL1        0.0338
     22 C         137.9681  138.6307  166.0701 C.ar    1  UNL1        0.0030
     23 C         138.0869  138.8534  167.5487 C.ar    1  UNL1       -0.0002
     24 C         139.0861  139.8374  168.0810 C.ar    1  UNL1       -0.0042
     25 C         139.9664  140.5987  167.1347 C.ar    1  UNL1       -0.0207
     26 C         139.8476  140.3761  165.6561 C.ar    1  UNL1       -0.0012
     27 C         137.2723  139.7730  160.0987 C.3     1  UNL1        0.0538
     28 C         138.0051  139.3444  161.3354 C.ar    1  UNL1        0.0781
     29 C         139.0882  138.3089  161.4043 C.ar    1  UNL1        0.0919
     30 N         139.5359  138.2007  162.8318 N.ar    1  UNL1       -0.3085
     31 C         140.6027  137.2847  163.3542 C.3     1  UNL1        0.1320
     32 C         138.7295  139.1694  163.6452 C.ar    1  UNL1        0.1435
     33 N         137.7835  139.8762  162.7204 N.ar    1  UNL1       -0.2311
     34 C         140.5040  142.9070  168.1993 C.3     1  UNL1        0.0474
     35 C         140.3635  143.1131  169.6784 C.2     1  UNL1        0.0507
     36 O         139.5646  142.1437  170.4982 O.co2   1  UNL1       -0.5492
     37 O         141.0218  144.2887  170.3377 O.co2   1  UNL1       -0.5492
@<TRIPOS>UNITY_ATOM_ATTR
36 1
charge -1
@<TRIPOS>BOND
     1    27    28    1
     2    28    29   ar
     3    29    30   ar
     4    30    31    1
     5    30    32   ar
     6    32    21    1
     7    21    22   ar
     8    22    23   ar
     9    23    24   ar
    10    24    25   ar
    11    25    20    1
    12    20    34    1
    13    34    35    1
    14    35    36   ar
    15    35    37   ar
    16    20     1    1
    17     1     2    1
    18     2     3    1
    19     3     4    1
    20     4     5    1
    21     5     7    1
    22     7     8    1
    23     8     9    1
    24     9    10   ar
    25    10    11   ar
    26    11    12   ar
    27    12    13   ar
    28    13    14   ar
    29    13    15    1
    30    15    16    1
    31    16    17    1
    32    17    18    1
    33     5     6    1
    34    25    26   ar
    35    32    33   ar
    36    33    28   ar
    37    26    21   ar
    38     6     2    1
    39    14     9   ar
    40    18    12    1
    41    15    19    1
@<TRIPOS>MOLECULE
*****
 37 41 0 0 0
SMALL
GASTEIGER

@<TRIPOS>ATOM
      1 C         142.1543  137.7387  161.2221 C.3     1  UNL1        0.0768
      2 N         140.8843  137.7670  162.0196 N.3     1  UNL1       -0.2724
      3 C         139.5118  138.0464  161.4824 C.3     1  UNL1        0.0721
      4 C         138.5430  137.9729  162.6252 C.3     1  UNL1        0.0187
      5 C         139.3165  137.6482  163.8686 C.3     1  UNL1        0.0178
      6 C         140.7635  137.5210  163.4944 C.3     1  UNL1        0.0721
      7 C         138.7437  137.4802  165.2447 C.3     1  UNL1        0.0077
      8 C         138.3157  138.6838  166.0309 C.3     1  UNL1        0.0459
      9 C         139.3237  139.4538  166.8318 C.ar    1  UNL1        0.0603
     10 C         140.5624  139.9812  166.1704 C.ar    1  UNL1        0.0145
     11 C         141.5703  140.7511  166.9712 C.ar    1  UNL1       -0.0003
     12 C         141.3395  140.9937  168.4334 C.ar    1  UNL1        0.0092
     13 C         140.1008  140.4663  169.0947 C.ar    1  UNL1        0.1240
     14 N         139.0928  139.6963  168.2939 N.ar    1  UNL1       -0.2356
     15 N         139.8700  140.7089  170.5568 N.pl3   1  UNL1       -0.3184
     16 C         140.8779  141.4788  171.3576 C.3     1  UNL1        0.0885
     17 C         142.1166  142.0062  170.6962 C.3     1  UNL1        0.0260
     18 C         142.3474  141.7636  169.2341 C.3     1  UNL1        0.0309
     19 H         139.0569  140.3627  170.9909 H       1  UNL1        0.1482
     20 C         142.8691  139.0187  160.9044 C.3     1  UNL1        0.0438
     21 C         142.2931  142.1252  163.3061 C.ar    1  UNL1        0.0338
     22 C         143.5439  142.0801  164.1328 C.ar    1  UNL1        0.0030
     23 C         144.5698  141.0146  163.8834 C.ar    1  UNL1       -0.0002
     24 C         144.3448  139.9941  162.8073 C.ar    1  UNL1       -0.0042
     25 C         143.0940  140.0392  161.9805 C.ar    1  UNL1       -0.0207
     26 C         142.0682  141.1047  162.2299 C.ar    1  UNL1       -0.0012
     27 C         138.4974  145.0085  165.5777 C.3     1  UNL1        0.0538
     28 C         139.5226  144.5161  164.5996 C.ar    1  UNL1        0.0781
     29 C         139.8546  145.1448  163.2789 C.ar    1  UNL1        0.0919
     30 N         140.9328  144.3258  162.6335 N.ar    1  UNL1       -0.3085
     31 C         141.5656  144.5945  161.3003 C.3     1  UNL1        0.1320
     32 C         141.2673  143.1907  163.5555 C.ar    1  UNL1        0.1435
     33 N         140.3957  143.3083  164.7705 N.ar    1  UNL1       -0.2311
     34 C         143.3589  139.2781  159.5105 C.3     1  UNL1        0.0474
     35 C         142.5601  140.1463  158.5843 C.2     1  UNL1        0.0507
     36 O         141.0620  140.1451  158.6606 O.co2   1  UNL1       -0.5492
     37 O         143.2593  141.0157  157.5817 O.co2   1  UNL1       -0.5492
@<TRIPOS>UNITY_ATOM_ATTR
36 1
charge -1
@<TRIPOS>BOND
     1    27    28    1
     2    28    29   ar
     3    29    30   ar
     4    30    31    1
     5    30    32   ar
     6    32    21    1
     7    21    22   ar
     8    22    23   ar
     9    23    24   ar
    10    24    25   ar
    11    25    20    1
    12    20    34    1
    13    34    35    1
    14    35    36   ar
    15    35    37   ar
    16    20     1    1
    17     1     2    1
    18     2     3    1
    19     3     4    1
    20     4     5    1
    21     5     7    1
    22     7     8    1
    23     8     9    1
    24     9    10   ar
    25    10    11   ar
    26    11    12   ar
    27    12    13   ar
    28    13    14   ar
    29    13    15    1
    30    15    16    1
    31    16    17    1
    32    17    18    1
    33     5     6    1
    34    25    26   ar
    35    32    33   ar
    36    33    28   ar
    37    26    21   ar
    38     6     2    1
    39    14     9   ar
    40    18    12    1
    41    15    19    1
@<TRIPOS>MOLECULE
*****
 37 41 0 0 0
SMALL
GASTEIGER

@<TRIPOS>ATOM
      1 C         142.3648  141.7087  166.8987 C.3     1  UNL1        0.0768
      2 N         142.3037  140.4391  166.1023 N.3     1  UNL1       -0.2724
      3 C         143.4319  139.8332  165.3211 C.3     1  UNL1        0.0721
      4 C         142.9292  138.5720  164.6832 C.3     1  UNL1        0.0187
      5 C         141.4904  138.3985  165.0702 C.3     1  UNL1        0.0178
      6 C         141.1039  139.5524  165.9472 C.3     1  UNL1        0.0721
      7 C         140.5954  137.2693  164.6534 C.3     1  UNL1        0.0077
      8 C         139.1997  137.5531  164.1828 C.3     1  UNL1        0.0459
      9 C         138.9180  138.7802  163.3674 C.ar    1  UNL1        0.0603
     10 C         138.1929  139.9399  163.9834 C.ar    1  UNL1        0.0145
     11 C         137.9112  141.1670  163.1680 C.ar    1  UNL1       -0.0003
     12 C         138.3547  141.2345  161.7366 C.ar    1  UNL1        0.0092
     13 C         139.0798  140.0748  161.1206 C.ar    1  UNL1        0.1240
     14 N         139.3615  138.8477  161.9361 N.ar    1  UNL1       -0.2356
     15 N         139.5233  140.1423  159.6893 N.pl3   1  UNL1       -0.3184
     16 C         139.2416  141.3694  158.8739 C.3     1  UNL1        0.0885
     17 C         138.5165  142.5290  159.4899 C.3     1  UNL1        0.0260
     18 C         138.0730  142.4616  160.9212 C.3     1  UNL1        0.0309
     19 H         139.9992  139.3811  159.2850 H       1  UNL1        0.1482
     20 C         141.1106  142.4863  167.1678 C.3     1  UNL1        0.0438
     21 C         140.3558  143.9634  163.5624 C.ar    1  UNL1        0.0338
     22 C         139.1014  144.7407  163.8314 C.ar    1  UNL1        0.0030
     23 C         138.5167  144.7664  165.2125 C.ar    1  UNL1       -0.0002
     24 C         139.1864  144.0150  166.3246 C.ar    1  UNL1       -0.0042
     25 C         140.4408  143.2378  166.0556 C.ar    1  UNL1       -0.0207
     26 C         141.0255  143.2120  164.6745 C.ar    1  UNL1       -0.0012
     27 C         141.6600  145.3410  158.6346 C.3     1  UNL1        0.0538
     28 C         141.5400  144.5708  159.9163 C.ar    1  UNL1        0.0781
     29 C         142.1407  143.2250  160.1957 C.ar    1  UNL1        0.0919
     30 N         141.7702  142.8337  161.5955 N.ar    1  UNL1       -0.3085
     31 C         142.1608  141.5617  162.2881 C.3     1  UNL1        0.1320
     32 C         140.9405  143.9376  162.1813 C.ar    1  UNL1        0.1435
     33 N         140.7983  145.0112  161.1434 N.ar    1  UNL1       -0.2311
     34 C         140.5261  142.5125  168.5490 C.3     1  UNL1        0.0474
     35 C         141.0774  143.4534  169.5789 C.2     1  UNL1        0.0507
     36 O         140.1890  144.4910  170.1989 O.co2   1  UNL1       -0.5492
     37 O         142.5170  143.3567  169.9890 O.co2   1  UNL1       -0.5492
@<TRIPOS>UNITY_ATOM_ATTR
36 1
charge -1
@<TRIPOS>BOND
     1    27    28    1
     2    28    29   ar
     3    29    30   ar
     4    30    31    1
     5    30    32   ar
     6    32    21    1
     7    21    22   ar
     8    22    23   ar
     9    23    24   ar
    10    24    25   ar
    11    25    20    1
    12    20    34    1
    13    34    35    1
    14    35    36   ar
    15    35    37   ar
    16    20     1    1
    17     1     2    1
    18     2     3    1
    19     3     4    1
    20     4     5    1
    21     5     7    1
    22     7     8    1
    23     8     9    1
    24     9    10   ar
    25    10    11   ar
    26    11    12   ar
    27    12    13   ar
    28    13    14   ar
    29    13    15    1
    30    15    16    1
    31    16    17    1
    32    17    18    1
    33     5     6    1
    34    25    26   ar
    35    32    33   ar
    36    33    28   ar
    37    26    21   ar
    38     6     2    1
    39    14     9   ar
    40    18    12    1
    41    15    19    1
@<TRIPOS>MOLECULE
*****
 37 41 0 0 0
SMALL
GASTEIGER

@<TRIPOS>ATOM
      1 C         137.4151  140.7764  163.1431 C.3     1  UNL1        0.0768
      2 N         137.8773  142.1947  163.3010 N.3     1  UNL1       -0.2724
      3 C         137.7759  143.0213  164.5486 C.3     1  UNL1        0.0721
      4 C         138.3580  144.3728  164.2578 C.3     1  UNL1        0.0187
      5 C         138.8191  144.3815  162.8305 C.3     1  UNL1        0.0178
      6 C         138.5220  143.0354  162.2392 C.3     1  UNL1        0.0721
      7 C         139.4640  145.5340  162.1194 C.3     1  UNL1        0.0077
      8 C         140.8492  145.3909  161.5619 C.3     1  UNL1        0.0459
      9 C         141.8734  144.5783  162.2972 C.ar    1  UNL1        0.0603
     10 C         142.6178  145.1781  163.4531 C.ar    1  UNL1        0.0145
     11 C         143.6420  144.3656  164.1885 C.ar    1  UNL1       -0.0003
     12 C         143.9218  142.9531  163.7679 C.ar    1  UNL1        0.0092
     13 C         143.1775  142.3533  162.6120 C.ar    1  UNL1        0.1240
     14 N         142.1532  143.1660  161.8766 N.ar    1  UNL1       -0.2356
     15 N         143.4573  140.9410  162.1914 N.pl3   1  UNL1       -0.3184
     16 C         144.4815  140.1284  162.9268 C.3     1  UNL1        0.0885
     17 C         145.2258  140.7282  164.0827 C.3     1  UNL1        0.0260
     18 C         144.9460  142.1406  164.5033 C.3     1  UNL1        0.0309
     19 H         142.9687  140.5473  161.4327 H       1  UNL1        0.1482
     20 C         138.3500  139.7396  162.5946 C.3     1  UNL1        0.0438
     21 C         141.0550  139.5502  165.4925 C.ar    1  UNL1        0.0338
     22 C         141.9065  138.4128  165.0116 C.ar    1  UNL1        0.0030
     23 C         141.5725  137.7176  163.7251 C.ar    1  UNL1       -0.0002
     24 C         140.3870  138.1598  162.9195 C.ar    1  UNL1       -0.0042
     25 C         139.5356  139.2973  163.4003 C.ar    1  UNL1       -0.0207
     26 C         139.8695  139.9925  164.6868 C.ar    1  UNL1       -0.0012
     27 C         143.6302  142.2955  169.1956 C.3     1  UNL1        0.0538
     28 C         142.5726  141.5073  168.4811 C.ar    1  UNL1        0.0781
     29 C         141.2332  141.1232  169.0364 C.ar    1  UNL1        0.0919
     30 N         140.5016  140.3433  167.9845 N.ar    1  UNL1       -0.3085
     31 C         139.1245  139.7632  168.1150 C.3     1  UNL1        0.1320
     32 C         141.3890  140.2454  166.7790 C.ar    1  UNL1        0.1435
     33 N         142.6689  140.9648  167.0860 N.ar    1  UNL1       -0.2311
     34 C         138.0996  139.1450  161.2404 C.3     1  UNL1        0.0474
     35 C         138.7157  139.7671  160.0225 C.2     1  UNL1        0.0507
     36 O         138.1230  141.0141  159.4359 O.co2   1  UNL1       -0.5492
     37 O         139.9244  139.1424  159.3911 O.co2   1  UNL1       -0.5492
@<TRIPOS>UNITY_ATOM_ATTR
36 1
charge -1
@<TRIPOS>BOND
     1    27    28    1
     2    28    29   ar
     3    29    30   ar
     4    30    31    1
     5    30    32   ar
     6    32    21    1
     7    21    22   ar
     8    22    23   ar
     9    23    24   ar
    10    24    25   ar
    11    25    20    1
    12    20    34    1
    13    34    35    1
    14    35    36   ar
    15    35    37   ar
    16    20     1    1
    17     1     2    1
    18     2     3    1
    19     3     4    1
    20     4     5    1
    21     5     7    1
    22     7     8    1
    23     8     9    1
    24     9    10   ar
    25    10    11   ar
    26    11    12   ar
    27    12    13   ar
    28    13    14   ar
    29    13    15    1
    30    15    16    1
    31    16    17    1
    32    17    18    1
    33     5     6    1
    34    25    26   ar
    35    32    33   ar
    36    33    28   ar
    37    26    21   ar
    38     6     2    1
    39    14     9   ar
    40    18    12    1
    41    15    19    1
