@<TRIPOS>MOLECULE
*****
 32 36 0 0 0
SMALL
GASTEIGER

@<TRIPOS>ATOM
      1 C         139.7677  139.7066  164.9143 C.ar    1  UNL1        0.0505
      2 C         138.5667  139.0004  165.4701 C.ar    1  UNL1        0.0178
      3 C         138.2859  139.0438  166.9429 C.ar    1  UNL1        0.0379
      4 C         139.2062  139.7935  167.8600 C.ar    1  UNL1        0.1364
      5 C         140.4072  140.4998  167.3043 C.ar    1  UNL1        0.0367
      6 C         140.6879  140.4563  165.8315 C.ar    1  UNL1        0.0153
      7 C         141.3274  141.2494  168.2215 C.3     1  UNL1        0.1537
      8 C         142.3320  142.0350  169.0111 C.3     1  UNL1        0.2350
      9 O         143.3601  142.5652  168.0562 O.2     1  UNL1       -0.4478
     10 C         142.9909  142.1073  166.6763 C.2     1  UNL1        0.2770
     11 N         143.7455  142.4095  165.4157 N.pl3   1  UNL1       -0.3133
     12 N         141.7346  141.2941  166.7785 N.2     1  UNL1       -0.2204
     13 C         141.0467  141.2929  169.6943 C.3     1  UNL1        0.0666
     14 C         141.4159  141.7508  171.0741 C.3     1  UNL1        0.0061
     15 C         142.2713  142.1334  169.9030 C.3     1  UNL1        0.0061
     16 C         139.8457  140.5866  170.2500 C.3     1  UNL1        0.2074
     17 O         138.9254  139.8369  169.3329 O.3     1  UNL1       -0.4756
     18 H         144.5642  142.9552  165.4508 H       1  UNL1        0.1466
     19 H         143.4221  142.0622  164.5531 H       1  UNL1        0.1466
     20 C         140.5576  138.4006  162.8119 C.2     1  UNL1        0.2669
     21 O         140.7862  137.1812  163.6553 O.2     1  UNL1       -0.2682
     22 N         140.0484  139.6632  163.4415 N.am    1  UNL1       -0.2792
     23 H         139.8984  140.4634  162.8880 H       1  UNL1        0.1552
     24 C         143.3762  138.0961  161.8305 C.3     1  UNL1        0.0328
     25 C         142.2476  138.2049  160.8484 C.ar    1  UNL1        0.0010
     26 C         142.5284  138.1615  159.3755 C.ar    1  UNL1        0.0092
     27 C         141.3999  138.2703  158.3934 C.ar    1  UNL1        0.0873
     28 C         139.9906  138.4225  158.8841 C.ar    1  UNL1        0.1092
     29 N         139.7098  138.4660  160.3569 N.ar    1  UNL1       -0.2389
     30 C         140.8384  138.3571  161.3391 C.ar    1  UNL1        0.1308
     31 C         141.6806  138.2269  156.9205 C.1     1  UNL1        0.1020
     32 N         141.9614  138.1834  155.4477 N.1     1  UNL1       -0.1908
@<TRIPOS>BOND
     1    24    25    1
     2    25    26   ar
     3    26    27   ar
     4    27    31    1
     5    31    32    3
     6    27    28   ar
     7    28    29   ar
     8    29    30   ar
     9    30    20    1
    10    20    21    2
    11    20    22   am
    12    22     1    1
    13     1     2   ar
    14     2     3   ar
    15     3     4   ar
    16     4     5   ar
    17     5     6   ar
    18     5     7    1
    19     7     8    1
    20     8     9    1
    21     9    10    1
    22    10    11    1
    23    10    12    2
    24     7    13    1
    25    13    14    1
    26    14    15    1
    27    13    16    1
    28    16    17    1
    29    30    25   ar
    30     6     1   ar
    31    12     7    1
    32    15    13    1
    33    17     4    1
    34    22    23    1
    35    11    18    1
    36    11    19    1
@<TRIPOS>MOLECULE
*****
 32 36 0 0 0
SMALL
GASTEIGER

@<TRIPOS>ATOM
      1 C         138.4960  141.5075  162.3477 C.ar    1  UNL1        0.0505
      2 C         137.8459  140.2628  161.8205 C.ar    1  UNL1        0.0178
      3 C         137.7025  140.0605  160.3411 C.ar    1  UNL1        0.0379
      4 C         138.2093  141.1028  159.3890 C.ar    1  UNL1        0.1364
      5 C         138.8595  142.3476  159.9162 C.ar    1  UNL1        0.0367
      6 C         139.0029  142.5500  161.3955 C.ar    1  UNL1        0.0153
      7 C         139.3663  143.3900  158.9640 C.3     1  UNL1        0.1537
      8 C         139.9182  144.5140  158.1382 C.3     1  UNL1        0.2350
      9 O         140.4717  145.5479  159.0734 O.2     1  UNL1       -0.4478
     10 C         140.2619  145.0629  160.4773 C.2     1  UNL1        0.2770
     11 N         140.6645  145.7848  161.7290 N.pl3   1  UNL1       -0.3133
     12 N         139.5787  143.7292  160.4097 N.2     1  UNL1       -0.2204
     13 C         139.2230  143.1876  157.4847 C.3     1  UNL1        0.0666
     14 C         139.4328  143.6726  156.0809 C.3     1  UNL1        0.0061
     15 C         139.8910  144.5081  157.2393 C.3     1  UNL1        0.0061
     16 C         138.5728  141.9429  156.9574 C.3     1  UNL1        0.2074
     17 O         138.0660  140.9005  157.9096 O.3     1  UNL1       -0.4756
     18 H         141.1104  146.6606  161.6703 H       1  UNL1        0.1466
     19 H         140.4829  145.3828  162.6091 H       1  UNL1        0.1466
     20 C         139.7799  141.0729  164.5641 C.2     1  UNL1        0.2669
     21 O         140.7772  140.2335  163.8218 O.2     1  UNL1       -0.2682
     22 N         138.6394  141.7099  163.8270 N.am    1  UNL1       -0.2792
     23 H         137.9848  142.2607  164.3142 H       1  UNL1        0.1552
     24 C         138.7313  139.0063  166.4693 C.3     1  UNL1        0.0328
     25 C         139.3990  140.2420  166.9961 C.ar    1  UNL1        0.0010
     26 C         139.5423  140.4443  168.4754 C.ar    1  UNL1        0.0092
     27 C         140.2100  141.6799  169.0022 C.ar    1  UNL1        0.0873
     28 C         140.7343  142.7132  168.0496 C.ar    1  UNL1        0.1092
     29 N         140.5910  142.5109  166.5702 N.ar    1  UNL1       -0.2389
     30 C         139.9233  141.2752  166.0435 C.ar    1  UNL1        0.1308
     31 C         140.3533  141.8822  170.4816 C.1     1  UNL1        0.1020
     32 N         140.4967  142.0846  171.9609 N.1     1  UNL1       -0.1908
@<TRIPOS>BOND
     1    24    25    1
     2    25    26   ar
     3    26    27   ar
     4    27    31    1
     5    31    32    3
     6    27    28   ar
     7    28    29   ar
     8    29    30   ar
     9    30    20    1
    10    20    21    2
    11    20    22   am
    12    22     1    1
    13     1     2   ar
    14     2     3   ar
    15     3     4   ar
    16     4     5   ar
    17     5     6   ar
    18     5     7    1
    19     7     8    1
    20     8     9    1
    21     9    10    1
    22    10    11    1
    23    10    12    2
    24     7    13    1
    25    13    14    1
    26    14    15    1
    27    13    16    1
    28    16    17    1
    29    30    25   ar
    30     6     1   ar
    31    12     7    1
    32    15    13    1
    33    17     4    1
    34    22    23    1
    35    11    18    1
    36    11    19    1
@<TRIPOS>MOLECULE
*****
 32 36 0 0 0
SMALL
GASTEIGER

@<TRIPOS>ATOM
      1 C         141.9198  141.4354  164.6958 C.ar    1  UNL1        0.0505
      2 C         143.1614  142.2698  164.8064 C.ar    1  UNL1        0.0178
      3 C         143.6730  142.6779  166.1561 C.ar    1  UNL1        0.0379
      4 C         142.9431  142.2516  167.3952 C.ar    1  UNL1        0.1364
      5 C         141.7015  141.4171  167.2846 C.ar    1  UNL1        0.0367
      6 C         141.1899  141.0090  165.9349 C.ar    1  UNL1        0.0153
      7 C         140.9716  140.9907  168.5237 C.3     1  UNL1        0.1537
      8 C         140.1399  140.4917  169.6679 C.3     1  UNL1        0.2350
      9 O         138.9980  139.7013  169.1009 O.2     1  UNL1       -0.4478
     10 C         139.1241  139.7119  167.6062 C.2     1  UNL1        0.2770
     11 N         138.1937  139.0430  166.6382 N.pl3   1  UNL1       -0.3133
     12 N         140.3438  140.5088  167.2495 N.2     1  UNL1       -0.2204
     13 C         141.4832  141.3988  169.8734 C.3     1  UNL1        0.0666
     14 C         141.3572  141.3882  171.3681 C.3     1  UNL1        0.0061
     15 C         140.3450  140.6709  170.5250 C.3     1  UNL1        0.0061
     16 C         142.7247  142.2333  169.9840 C.3     1  UNL1        0.2074
     17 O         143.4547  142.6597  168.7449 O.3     1  UNL1       -0.4756
     18 H         137.4157  138.5398  166.9709 H       1  UNL1        0.1466
     19 H         138.3612  139.1071  165.6702 H       1  UNL1        0.1466
     20 C         141.7192  139.6624  162.8073 C.2     1  UNL1        0.2669
     21 O         142.5419  138.7055  163.6183 O.2     1  UNL1       -0.2682
     22 N         141.4082  141.0273  163.3461 N.am    1  UNL1       -0.2792
     23 H         140.8683  141.6553  162.8138 H       1  UNL1        0.1552
     24 C         139.0550  138.3057  162.5605 C.3     1  UNL1        0.0328
     25 C         139.8755  138.5759  161.3342 C.ar    1  UNL1        0.0010
     26 C         139.3639  138.1678  159.9845 C.ar    1  UNL1        0.0092
     27 C         140.1844  138.4381  158.7582 C.ar    1  UNL1        0.0873
     28 C         141.5166  139.1165  158.8816 C.ar    1  UNL1        0.1092
     29 N         142.0282  139.5246  160.2314 N.ar    1  UNL1       -0.2389
     30 C         141.2076  139.2543  161.4576 C.ar    1  UNL1        0.1308
     31 C         139.6728  138.0300  157.4085 C.1     1  UNL1        0.1020
     32 N         139.1611  137.6219  156.0588 N.1     1  UNL1       -0.1908
@<TRIPOS>BOND
     1    24    25    1
     2    25    26   ar
     3    26    27   ar
     4    27    31    1
     5    31    32    3
     6    27    28   ar
     7    28    29   ar
     8    29    30   ar
     9    30    20    1
    10    20    21    2
    11    20    22   am
    12    22     1    1
    13     1     2   ar
    14     2     3   ar
    15     3     4   ar
    16     4     5   ar
    17     5     6   ar
    18     5     7    1
    19     7     8    1
    20     8     9    1
    21     9    10    1
    22    10    11    1
    23    10    12    2
    24     7    13    1
    25    13    14    1
    26    14    15    1
    27    13    16    1
    28    16    17    1
    29    30    25   ar
    30     6     1   ar
    31    12     7    1
    32    15    13    1
    33    17     4    1
    34    22    23    1
    35    11    18    1
    36    11    19    1
@<TRIPOS>MOLECULE
*****
 32 36 0 0 0
SMALL
GASTEIGER

@<TRIPOS>ATOM
      1 C         143.1885  142.9428  162.6024 C.ar    1  UNL1        0.0505
      2 C         144.3357  142.1379  162.0677 C.ar    1  UNL1        0.0178
      3 C         144.6043  142.1032  160.5923 C.ar    1  UNL1        0.0379
      4 C         143.7257  142.8734  159.6517 C.ar    1  UNL1        0.1364
      5 C         142.5784  143.6784  160.1864 C.ar    1  UNL1        0.0367
      6 C         142.3098  143.7131  161.6618 C.ar    1  UNL1        0.0153
      7 C         141.6999  144.4486  159.2458 C.3     1  UNL1        0.1537
      8 C         140.7406  145.2652  158.4316 C.3     1  UNL1        0.2350
      9 O         139.7584  145.8996  159.3712 O.2     1  UNL1       -0.4478
     10 C         140.1105  145.4749  160.7661 C.2     1  UNL1        0.2770
     11 N         139.3894  145.8765  162.0186 N.pl3   1  UNL1       -0.3133
     12 N         141.3104  144.5782  160.6886 N.2     1  UNL1       -0.2204
     13 C         141.9685  144.4139  157.7704 C.3     1  UNL1        0.0666
     14 C         141.6163  144.8385  156.3756 C.3     1  UNL1        0.0061
     15 C         140.7989  145.3233  157.5361 C.3     1  UNL1        0.0061
     16 C         143.1157  143.6089  157.2357 C.3     1  UNL1        0.2074
     17 O         143.9943  142.8387  158.1764 O.3     1  UNL1       -0.4756
     18 H         138.6075  146.4725  161.9668 H       1  UNL1        0.1466
     19 H         139.6980  145.5441  162.8924 H       1  UNL1        0.1466
     20 C         142.0377  141.9386  164.7041 C.2     1  UNL1        0.2669
     21 O         141.4242  140.8648  163.8551 O.2     1  UNL1       -0.2682
     22 N         142.9199  142.9775  164.0777 N.am    1  UNL1       -0.2792
     23 H         143.3225  143.6822  164.6349 H       1  UNL1        0.1552
     24 C         139.7244  143.5232  165.7707 C.3     1  UNL1        0.0328
     25 C         140.6125  142.7655  166.7127 C.ar    1  UNL1        0.0010
     26 C         140.3439  142.8003  168.1881 C.ar    1  UNL1        0.0092
     27 C         141.2319  142.0427  169.1301 C.ar    1  UNL1        0.0873
     28 C         142.3886  141.2504  168.5969 C.ar    1  UNL1        0.1092
     29 N         142.6572  141.2157  167.1215 N.ar    1  UNL1       -0.2389
     30 C         141.7691  141.9733  166.1794 C.ar    1  UNL1        0.1308
     31 C         140.9632  142.0774  170.6055 C.1     1  UNL1        0.1020
     32 N         140.6946  142.1121  172.0808 N.1     1  UNL1       -0.1908
@<TRIPOS>BOND
     1    24    25    1
     2    25    26   ar
     3    26    27   ar
     4    27    31    1
     5    31    32    3
     6    27    28   ar
     7    28    29   ar
     8    29    30   ar
     9    30    20    1
    10    20    21    2
    11    20    22   am
    12    22     1    1
    13     1     2   ar
    14     2     3   ar
    15     3     4   ar
    16     4     5   ar
    17     5     6   ar
    18     5     7    1
    19     7     8    1
    20     8     9    1
    21     9    10    1
    22    10    11    1
    23    10    12    2
    24     7    13    1
    25    13    14    1
    26    14    15    1
    27    13    16    1
    28    16    17    1
    29    30    25   ar
    30     6     1   ar
    31    12     7    1
    32    15    13    1
    33    17     4    1
    34    22    23    1
    35    11    18    1
    36    11    19    1
@<TRIPOS>MOLECULE
*****
 32 36 0 0 0
SMALL
GASTEIGER

@<TRIPOS>ATOM
      1 C         141.8125  141.6061  164.5065 C.ar    1  UNL1        0.0505
      2 C         143.0646  142.4284  164.5843 C.ar    1  UNL1        0.0178
      3 C         143.6627  142.7594  165.9195 C.ar    1  UNL1        0.0379
      4 C         143.0087  142.2682  167.1768 C.ar    1  UNL1        0.1364
      5 C         141.7565  141.4459  167.0990 C.ar    1  UNL1        0.0367
      6 C         141.1584  141.1149  165.7638 C.ar    1  UNL1        0.0153
      7 C         141.1025  140.9547  168.3563 C.3     1  UNL1        0.1537
      8 C         140.3404  140.3965  169.5215 C.3     1  UNL1        0.2350
      9 O         139.1595  139.6431  168.9850 O.2     1  UNL1       -0.4478
     10 C         139.1918  139.7356  167.4881 C.2     1  UNL1        0.2770
     11 N         138.1978  139.1248  166.5454 N.pl3   1  UNL1       -0.3133
     12 N         140.3926  140.5462  167.0997 N.2     1  UNL1       -0.2204
     13 C         141.7006  141.2857  169.6915 C.3     1  UNL1        0.0666
     14 C         141.6683  141.1932  171.1883 C.3     1  UNL1        0.0061
     15 C         140.6001  140.5274  170.3725 C.3     1  UNL1        0.0061
     16 C         142.9527  142.1079  169.7694 C.3     1  UNL1        0.2074
     17 O         143.6068  142.5992  168.5120 O.3     1  UNL1       -0.4756
     18 H         137.4384  138.6071  166.8983 H       1  UNL1        0.1466
     19 H         138.3048  139.2415  165.5737 H       1  UNL1        0.1466
     20 C         139.9783  141.9862  162.7061 C.2     1  UNL1        0.2669
     21 O         139.3403  143.0284  163.5761 O.2     1  UNL1       -0.2682
     22 N         141.2144  141.2751  163.1713 N.am    1  UNL1       -0.2792
     23 H         141.6331  140.5911  162.6003 H       1  UNL1        0.1552
     24 C         138.0129  139.7330  162.4600 C.3     1  UNL1        0.0328
     25 C         138.3975  140.5286  161.2478 C.ar    1  UNL1        0.0010
     26 C         137.7994  140.1976  159.9127 C.ar    1  UNL1        0.0092
     27 C         138.1840  140.9931  158.7006 C.ar    1  UNL1        0.0873
     28 C         139.1667  142.1198  158.8236 C.ar    1  UNL1        0.1092
     29 N         139.7648  142.4508  160.1588 N.ar    1  UNL1       -0.2389
     30 C         139.3802  141.6552  161.3709 C.ar    1  UNL1        0.1308
     31 C         137.5859  140.6621  157.3654 C.1     1  UNL1        0.1020
     32 N         136.9878  140.3311  156.0302 N.1     1  UNL1       -0.1908
@<TRIPOS>BOND
     1    24    25    1
     2    25    26   ar
     3    26    27   ar
     4    27    31    1
     5    31    32    3
     6    27    28   ar
     7    28    29   ar
     8    29    30   ar
     9    30    20    1
    10    20    21    2
    11    20    22   am
    12    22     1    1
    13     1     2   ar
    14     2     3   ar
    15     3     4   ar
    16     4     5   ar
    17     5     6   ar
    18     5     7    1
    19     7     8    1
    20     8     9    1
    21     9    10    1
    22    10    11    1
    23    10    12    2
    24     7    13    1
    25    13    14    1
    26    14    15    1
    27    13    16    1
    28    16    17    1
    29    30    25   ar
    30     6     1   ar
    31    12     7    1
    32    15    13    1
    33    17     4    1
    34    22    23    1
    35    11    18    1
    36    11    19    1
@<TRIPOS>MOLECULE
*****
 32 36 0 0 0
SMALL
GASTEIGER

@<TRIPOS>ATOM
      1 C         142.4467  139.9095  162.7279 C.ar    1  UNL1        0.0505
      2 C         143.8336  139.4597  162.3754 C.ar    1  UNL1        0.0178
      3 C         144.1249  138.9336  161.0013 C.ar    1  UNL1        0.0379
      4 C         143.0293  138.8572  159.9796 C.ar    1  UNL1        0.1364
      5 C         141.6424  139.3070  160.3320 C.ar    1  UNL1        0.0367
      6 C         141.3511  139.8332  161.7062 C.ar    1  UNL1        0.0153
      7 C         140.5468  139.2306  159.3104 C.3     1  UNL1        0.1537
      8 C         139.3560  139.2135  158.3985 C.3     1  UNL1        0.2350
      9 O         138.1804  139.7488  159.1611 O.2     1  UNL1       -0.4478
     10 C         138.6448  140.0967  160.5444 C.2     1  UNL1        0.2770
     11 N         137.7957  140.6651  161.6426 N.pl3   1  UNL1       -0.3133
     12 N         140.1073  139.7764  160.6366 N.2     1  UNL1       -0.2204
     13 C         140.8381  138.7044  157.9362 C.3     1  UNL1        0.0666
     14 C         140.3737  138.3565  156.5530 C.3     1  UNL1        0.0061
     15 C         139.4048  138.9200  157.5499 C.3     1  UNL1        0.0061
     16 C         142.2249  138.2546  157.5838 C.3     1  UNL1        0.2074
     17 O         143.3206  138.3310  158.6055 O.3     1  UNL1       -0.4756
     18 H         136.8402  140.8419  161.4847 H       1  UNL1        0.1466
     19 H         138.1940  140.8613  162.5213 H       1  UNL1        0.1466
     20 C         141.8899  139.4826  165.2294 C.2     1  UNL1        0.2669
     21 O         141.9157  138.0032  164.9827 O.2     1  UNL1       -0.2682
     22 N         142.1554  140.4357  164.1020 N.am    1  UNL1       -0.2792
     23 H         142.1385  141.4067  164.2640 H       1  UNL1        0.1552
     24 C         139.0817  139.4490  166.2844 C.3     1  UNL1        0.0328
     25 C         140.1946  139.9920  167.1310 C.ar    1  UNL1        0.0010
     26 C         139.9033  140.5182  168.5052 C.ar    1  UNL1        0.0092
     27 C         141.0161  141.0612  169.3518 C.ar    1  UNL1        0.0873
     28 C         142.4202  141.0780  168.8244 C.ar    1  UNL1        0.1092
     29 N         142.7115  140.5518  167.4502 N.ar    1  UNL1       -0.2389
     30 C         141.5986  140.0088  166.6036 C.ar    1  UNL1        0.1308
     31 C         140.7248  141.5874  170.7260 C.1     1  UNL1        0.1020
     32 N         140.4335  142.1136  172.1001 N.1     1  UNL1       -0.1908
@<TRIPOS>BOND
     1    24    25    1
     2    25    26   ar
     3    26    27   ar
     4    27    31    1
     5    31    32    3
     6    27    28   ar
     7    28    29   ar
     8    29    30   ar
     9    30    20    1
    10    20    21    2
    11    20    22   am
    12    22     1    1
    13     1     2   ar
    14     2     3   ar
    15     3     4   ar
    16     4     5   ar
    17     5     6   ar
    18     5     7    1
    19     7     8    1
    20     8     9    1
    21     9    10    1
    22    10    11    1
    23    10    12    2
    24     7    13    1
    25    13    14    1
    26    14    15    1
    27    13    16    1
    28    16    17    1
    29    30    25   ar
    30     6     1   ar
    31    12     7    1
    32    15    13    1
    33    17     4    1
    34    22    23    1
    35    11    18    1
    36    11    19    1
@<TRIPOS>MOLECULE
*****
 32 36 0 0 0
SMALL
GASTEIGER

@<TRIPOS>ATOM
      1 C         139.7210  140.8748  164.4065 C.ar    1  UNL1        0.0505
      2 C         138.5446  140.0550  164.8470 C.ar    1  UNL1        0.0178
      3 C         138.4053  139.6560  166.2863 C.ar    1  UNL1        0.0379
      4 C         139.4423  140.0768  167.2850 C.ar    1  UNL1        0.1364
      5 C         140.6187  140.8967  166.8445 C.ar    1  UNL1        0.0367
      6 C         140.7580  141.2957  165.4053 C.ar    1  UNL1        0.0153
      7 C         141.6557  141.3175  167.8432 C.3     1  UNL1        0.1537
      8 C         142.7664  141.8096  168.7230 C.3     1  UNL1        0.2350
      9 O         143.7251  142.5854  167.8692 O.2     1  UNL1       -0.4478
     10 C         143.2068  142.5728  166.4615 C.2     1  UNL1        0.2770
     11 N         143.8539  143.2286  165.2778 N.pl3   1  UNL1       -0.3133
     12 N         141.9279  141.7892  166.4456 N.2     1  UNL1       -0.2204
     13 C         141.5164  140.9186  169.2825 C.3     1  UNL1        0.0666
     14 C         142.0346  140.9312  170.6900 C.3     1  UNL1        0.0061
     15 C         142.7943  141.6349  169.6048 C.3     1  UNL1        0.0061
     16 C         140.3400  140.0988  169.7230 C.3     1  UNL1        0.2074
     17 O         139.3029  139.6779  168.7242 O.3     1  UNL1       -0.4756
     18 H         144.6976  143.7236  165.3895 H       1  UNL1        0.1466
     19 H         143.4349  143.1641  164.3893 H       1  UNL1        0.1466
     20 C         139.0461  142.4092  162.4216 C.2     1  UNL1        0.2669
     21 O         138.0925  143.1457  163.3151 O.2     1  UNL1       -0.2682
     22 N         139.8603  141.2738  162.9673 N.am    1  UNL1       -0.2792
     23 H         140.4862  140.7904  162.3809 H       1  UNL1        0.1552
     24 C         140.8478  144.6850  161.6636 C.3     1  UNL1        0.0328
     25 C         140.0863  143.9460  160.6033 C.ar    1  UNL1        0.0010
     26 C         140.2256  144.3450  159.1641 C.ar    1  UNL1        0.0092
     27 C         139.4642  143.6061  158.1038 C.ar    1  UNL1        0.0873
     28 C         138.5633  142.4682  158.4828 C.ar    1  UNL1        0.1092
     29 N         138.4239  142.0692  159.9221 N.ar    1  UNL1       -0.2389
     30 C         139.1855  142.8082  160.9823 C.ar    1  UNL1        0.1308
     31 C         139.6035  144.0051  156.6646 C.1     1  UNL1        0.1020
     32 N         139.7428  144.4041  155.2254 N.1     1  UNL1       -0.1908
@<TRIPOS>BOND
     1    24    25    1
     2    25    26   ar
     3    26    27   ar
     4    27    31    1
     5    31    32    3
     6    27    28   ar
     7    28    29   ar
     8    29    30   ar
     9    30    20    1
    10    20    21    2
    11    20    22   am
    12    22     1    1
    13     1     2   ar
    14     2     3   ar
    15     3     4   ar
    16     4     5   ar
    17     5     6   ar
    18     5     7    1
    19     7     8    1
    20     8     9    1
    21     9    10    1
    22    10    11    1
    23    10    12    2
    24     7    13    1
    25    13    14    1
    26    14    15    1
    27    13    16    1
    28    16    17    1
    29    30    25   ar
    30     6     1   ar
    31    12     7    1
    32    15    13    1
    33    17     4    1
    34    22    23    1
    35    11    18    1
    36    11    19    1
@<TRIPOS>MOLECULE
*****
 32 36 0 0 0
SMALL
GASTEIGER

@<TRIPOS>ATOM
      1 C         141.2662  141.6681  164.5509 C.ar    1  UNL1        0.0505
      2 C         140.4100  142.8996  164.5628 C.ar    1  UNL1        0.0178
      3 C         139.9827  143.5035  165.8677 C.ar    1  UNL1        0.0379
      4 C         140.4116  142.8758  167.1607 C.ar    1  UNL1        0.1364
      5 C         141.2678  141.6442  167.1489 C.ar    1  UNL1        0.0367
      6 C         141.6952  141.0403  165.8440 C.ar    1  UNL1        0.0153
      7 C         141.6967  141.0165  168.4420 C.3     1  UNL1        0.1537
      8 C         142.2007  140.2814  169.6485 C.3     1  UNL1        0.2350
      9 O         143.0147  139.1144  169.1737 O.2     1  UNL1       -0.4478
     10 C         143.0138  139.1281  167.6737 C.2     1  UNL1        0.2770
     11 N         143.7060  138.1399  166.7825 N.pl3   1  UNL1       -0.3133
     12 N         142.1993  140.3037  167.2215 N.2     1  UNL1       -0.2204
     13 C         141.2694  141.6203  169.7469 C.3     1  UNL1        0.0666
     14 C         141.2703  141.6065  171.2468 C.3     1  UNL1        0.0061
     15 C         142.0114  140.5468  170.4866 C.3     1  UNL1        0.0061
     16 C         140.4132  142.8518  169.7587 C.3     1  UNL1        0.2074
     17 O         139.9843  143.4796  168.4656 O.3     1  UNL1       -0.4756
     18 H         144.2196  137.3978  167.1758 H       1  UNL1        0.1466
     19 H         143.6466  138.2334  165.8043 H       1  UNL1        0.1466
     20 C         140.9409  139.8982  162.6770 C.2     1  UNL1        0.2669
     21 O         139.7609  139.3359  163.4129 O.2     1  UNL1       -0.2682
     22 N         141.6935  141.0642  163.2460 N.am    1  UNL1       -0.2792
     23 H         142.4680  141.4332  162.7630 H       1  UNL1        0.1552
     24 C         143.4606  138.2769  162.5282 C.3     1  UNL1        0.0328
     25 C         142.6280  138.4837  161.2977 C.ar    1  UNL1        0.0010
     26 C         143.0553  137.8799  159.9928 C.ar    1  UNL1        0.0092
     27 C         142.2228  138.0867  158.7623 C.ar    1  UNL1        0.0873
     28 C         140.9629  138.8974  158.8367 C.ar    1  UNL1        0.1092
     29 N         140.5356  139.5012  160.1416 N.ar    1  UNL1       -0.2389
     30 C         141.3682  139.2944  161.3721 C.ar    1  UNL1        0.1308
     31 C         142.6501  137.4828  157.4574 C.1     1  UNL1        0.1020
     32 N         143.0774  136.8790  156.1525 N.1     1  UNL1       -0.1908
@<TRIPOS>BOND
     1    24    25    1
     2    25    26   ar
     3    26    27   ar
     4    27    31    1
     5    31    32    3
     6    27    28   ar
     7    28    29   ar
     8    29    30   ar
     9    30    20    1
    10    20    21    2
    11    20    22   am
    12    22     1    1
    13     1     2   ar
    14     2     3   ar
    15     3     4   ar
    16     4     5   ar
    17     5     6   ar
    18     5     7    1
    19     7     8    1
    20     8     9    1
    21     9    10    1
    22    10    11    1
    23    10    12    2
    24     7    13    1
    25    13    14    1
    26    14    15    1
    27    13    16    1
    28    16    17    1
    29    30    25   ar
    30     6     1   ar
    31    12     7    1
    32    15    13    1
    33    17     4    1
    34    22    23    1
    35    11    18    1
    36    11    19    1
@<TRIPOS>MOLECULE
*****
 32 36 0 0 0
SMALL
GASTEIGER

@<TRIPOS>ATOM
      1 C         139.6384  143.4314  162.2165 C.ar    1  UNL1        0.0505
      2 C         140.3684  144.7035  161.9022 C.ar    1  UNL1        0.0178
      3 C         140.5134  145.1529  160.4785 C.ar    1  UNL1        0.0379
      4 C         139.9283  144.3302  159.3690 C.ar    1  UNL1        0.1364
      5 C         139.1983  143.0581  159.6833 C.ar    1  UNL1        0.0367
      6 C         139.0533  142.6086  161.1070 C.ar    1  UNL1        0.0153
      7 C         138.6132  142.2354  158.5738 C.3     1  UNL1        0.1537
      8 C         137.9786  141.3133  157.5753 C.3     1  UNL1        0.2350
      9 O         137.3628  140.1701  158.3262 O.2     1  UNL1       -0.4478
     10 C         137.6169  140.3856  159.7888 C.2     1  UNL1        0.2770
     11 N         137.1756  139.4831  160.9026 N.pl3   1  UNL1       -0.3133
     12 N         138.3897  141.6620  159.9418 N.2     1  UNL1       -0.2204
     13 C         138.7582  142.6848  157.1501 C.3     1  UNL1        0.0666
     14 C         138.5041  142.4693  155.6876 C.3     1  UNL1        0.0061
     15 C         137.9990  141.4754  156.6910 C.3     1  UNL1        0.0061
     16 C         139.4882  143.9569  156.8358 C.3     1  UNL1        0.2074
     17 O         140.0733  144.7797  157.9453 O.3     1  UNL1       -0.4756
     18 H         136.6701  138.6628  160.7006 H       1  UNL1        0.1466
     19 H         137.3916  139.7110  161.8357 H       1  UNL1        0.1466
     20 C         140.3742  141.8925  164.1762 C.2     1  UNL1        0.2669
     21 O         141.4000  141.2525  163.2884 O.2     1  UNL1       -0.2682
     22 N         139.4934  142.9819  163.6402 N.am    1  UNL1       -0.2792
     23 H         138.8201  143.4020  164.2229 H       1  UNL1        0.1552
     24 C         138.5126  139.6403  164.8560 C.3     1  UNL1        0.0328
     25 C         139.2984  140.3170  165.9398 C.ar    1  UNL1        0.0010
     26 C         139.1535  139.8676  167.3636 C.ar    1  UNL1        0.0092
     27 C         139.9393  140.5442  168.4473 C.ar    1  UNL1        0.0873
     28 C         140.8701  141.6703  168.1074 C.ar    1  UNL1        0.1092
     29 N         141.0151  142.1198  166.6837 N.ar    1  UNL1       -0.2389
     30 C         140.2292  141.4431  165.5999 C.ar    1  UNL1        0.1308
     31 C         139.7943  140.0948  169.8711 C.1     1  UNL1        0.1020
     32 N         139.6493  139.6454  171.2948 N.1     1  UNL1       -0.1908
@<TRIPOS>BOND
     1    24    25    1
     2    25    26   ar
     3    26    27   ar
     4    27    31    1
     5    31    32    3
     6    27    28   ar
     7    28    29   ar
     8    29    30   ar
     9    30    20    1
    10    20    21    2
    11    20    22   am
    12    22     1    1
    13     1     2   ar
    14     2     3   ar
    15     3     4   ar
    16     4     5   ar
    17     5     6   ar
    18     5     7    1
    19     7     8    1
    20     8     9    1
    21     9    10    1
    22    10    11    1
    23    10    12    2
    24     7    13    1
    25    13    14    1
    26    14    15    1
    27    13    16    1
    28    16    17    1
    29    30    25   ar
    30     6     1   ar
    31    12     7    1
    32    15    13    1
    33    17     4    1
    34    22    23    1
    35    11    18    1
    36    11    19    1
