@<TRIPOS>MOLECULE
*****
 35 40 0 0 0
SMALL
GASTEIGER

@<TRIPOS>ATOM
      1 C         139.2987  139.2910  163.9960 C.3     1  UNL1        0.1534
      2 C         140.6353  139.0153  163.3738 C.3     1  UNL1        0.1067
      3 N         140.7384  138.7645  161.8985 N.3     1  UNL1       -0.2665
      4 C         142.0751  138.4888  161.2762 C.3     1  UNL1        0.0940
      5 C         142.1782  138.2380  159.8009 C.3     1  UNL1        0.1107
      6 N         140.9446  138.2628  158.9480 N.am    1  UNL1       -0.2764
      7 C         141.0477  138.0119  157.4727 C.2     1  UNL1        0.2301
      8 O         139.8141  138.0368  156.6197 O.2     1  UNL1       -0.2745
      9 C         139.6079  138.5385  159.5702 C.3     1  UNL1        0.1119
     10 C         139.5048  138.7893  161.0455 C.3     1  UNL1        0.1075
     11 C         138.1681  139.0650  161.6678 C.3     1  UNL1        0.1601
     12 O         138.0651  139.3158  163.1430 O.3     1  UNL1       -0.3489
     13 O         137.8752  139.5477  170.7160 O.2     1  UNL1       -0.2449
     14 C         138.8861  140.2944  169.8972 C.2     1  UNL1        0.3409
     15 O         139.7939  141.2919  170.5536 O.3     1  UNL1       -0.4451
     16 C         140.8048  142.0386  169.7347 C.3     1  UNL1        0.2134
     17 C         140.9079  141.7877  168.2595 C.3     1  UNL1        0.0740
     18 C         140.0002  140.7902  167.6031 C.ar    1  UNL1       -0.0124
     19 C         140.1033  140.5394  166.1278 C.ar    1  UNL1       -0.0058
     20 C         139.1955  139.5419  165.4714 C.ar    1  UNL1        0.0056
     21 C         138.1846  138.7952  166.2902 C.ar    1  UNL1       -0.0017
     22 C         138.0814  139.0460  167.7654 C.ar    1  UNL1        0.0059
     23 C         138.9892  140.0436  168.4219 C.ar    1  UNL1        0.0718
     24 C         142.3844  137.7362  156.8504 C.3     1  UNL1        0.1116
     25 C         142.7495  136.3388  156.4458 C.ar    1  UNL1       -0.0130
     26 C         143.2974  135.3823  157.4633 C.ar    1  UNL1       -0.0022
     27 C         143.6625  133.9848  157.0587 C.ar    1  UNL1        0.0190
     28 C         143.4796  133.5437  155.6368 C.ar    1  UNL1        0.0862
     29 C         142.9317  134.5000  154.6194 C.ar    1  UNL1        0.0190
     30 C         142.5666  135.8976  155.0239 C.ar    1  UNL1       -0.0022
     31 N         143.8447  132.1462  155.2322 N.ar    1  UNL1       -0.1886
     32 C         144.7869  131.2349  155.9614 C.ar    1  UNL1        0.2258
     33 N         144.8562  129.9401  155.2073 N.ar    1  UNL1       -0.1045
     34 N         143.9568  130.0512  154.0120 N.ar    1  UNL1       -0.0222
     35 N         143.3317  131.4146  154.0273 N.ar    1  UNL1       -0.0385
@<TRIPOS>BOND
     1    13    14    2
     2    14    15    1
     3    15    16    1
     4    16    17    1
     5    17    18    1
     6    18    19   ar
     7    19    20   ar
     8     1    20    1
     9     1     2    1
    10     2     3    1
    11     3     4    1
    12     4     5    1
    13     5     6    1
    14     6     7   am
    15     7     8    2
    16     7    24    1
    17    24    25    1
    18    25    26   ar
    19    26    27   ar
    20    27    28   ar
    21    28    31    1
    22    31    32   ar
    23    32    33   ar
    24    33    34   ar
    25    34    35   ar
    26    28    29   ar
    27    29    30   ar
    28     6     9    1
    29    10     9    1
    30    10    11    1
    31    11    12    1
    32    20    21   ar
    33    21    22   ar
    34    22    23   ar
    35    23    14    1
    36    23    18   ar
    37    12     1    1
    38    10     3    1
    39    30    25   ar
    40    35    31   ar
@<TRIPOS>MOLECULE
*****
 35 40 0 0 0
SMALL
GASTEIGER

@<TRIPOS>ATOM
      1 C         141.6328  139.9805  164.6333 C.3     1  UNL1        0.1534
      2 C         140.8713  139.2592  163.5611 C.3     1  UNL1        0.1067
      3 N         141.4128  139.2056  162.1634 N.3     1  UNL1       -0.2665
      4 C         140.6512  138.4843  161.0911 C.3     1  UNL1        0.0940
      5 C         141.1928  138.4307  159.6933 C.3     1  UNL1        0.1107
      6 N         142.4959  139.0984  159.3677 N.am    1  UNL1       -0.2764
      7 C         143.0374  139.0449  157.9700 C.2     1  UNL1        0.2301
      8 O         144.3406  139.7126  157.6444 O.2     1  UNL1       -0.2745
      9 C         143.2575  139.8197  160.4399 C.3     1  UNL1        0.1119
     10 C         142.7159  139.8733  161.8378 C.3     1  UNL1        0.1075
     11 C         143.4775  140.5946  162.9100 C.3     1  UNL1        0.1601
     12 O         142.9360  140.6482  164.3078 O.3     1  UNL1       -0.3489
     13 O         138.0306  139.8498  170.4863 O.2     1  UNL1       -0.2449
     14 C         139.4667  140.1949  170.2246 C.2     1  UNL1        0.3409
     15 O         140.3612  140.5936  171.3607 O.3     1  UNL1       -0.4451
     16 C         141.7973  140.9387  171.0990 C.3     1  UNL1        0.2134
     17 C         142.3389  140.8851  169.7013 C.3     1  UNL1        0.0740
     18 C         141.4443  140.4864  168.5652 C.ar    1  UNL1       -0.0124
     19 C         141.9859  140.4328  167.1673 C.ar    1  UNL1       -0.0058
     20 C         141.0913  140.0341  166.0312 C.ar    1  UNL1        0.0056
     21 C         139.6552  139.6890  166.2929 C.ar    1  UNL1       -0.0017
     22 C         139.1136  139.7426  167.6907 C.ar    1  UNL1        0.0059
     23 C         140.0082  140.1413  168.8268 C.ar    1  UNL1        0.0718
     24 C         142.2758  138.3235  156.8977 C.3     1  UNL1        0.1116
     25 C         142.6562  136.9224  156.5209 C.ar    1  UNL1       -0.0130
     26 C         143.0125  135.9294  157.5873 C.ar    1  UNL1       -0.0022
     27 C         143.3929  134.5282  157.2105 C.ar    1  UNL1        0.0190
     28 C         143.4170  134.1200  155.7673 C.ar    1  UNL1        0.0862
     29 C         143.0608  135.1129  154.7009 C.ar    1  UNL1        0.0190
     30 C         142.6804  136.5141  155.0777 C.ar    1  UNL1       -0.0022
     31 N         143.7974  132.7188  155.3905 N.ar    1  UNL1       -0.1886
     32 C         144.7522  131.8338  156.1356 C.ar    1  UNL1        0.2258
     33 N         144.8347  130.5246  155.4081 N.ar    1  UNL1       -0.1045
     34 N         143.9309  130.6006  154.2133 N.ar    1  UNL1       -0.0222
     35 N         143.2898  131.9566  154.2024 N.ar    1  UNL1       -0.0385
@<TRIPOS>BOND
     1    13    14    2
     2    14    15    1
     3    15    16    1
     4    16    17    1
     5    17    18    1
     6    18    19   ar
     7    19    20   ar
     8     1    20    1
     9     1     2    1
    10     2     3    1
    11     3     4    1
    12     4     5    1
    13     5     6    1
    14     6     7   am
    15     7     8    2
    16     7    24    1
    17    24    25    1
    18    25    26   ar
    19    26    27   ar
    20    27    28   ar
    21    28    31    1
    22    31    32   ar
    23    32    33   ar
    24    33    34   ar
    25    34    35   ar
    26    28    29   ar
    27    29    30   ar
    28     6     9    1
    29    10     9    1
    30    10    11    1
    31    11    12    1
    32    20    21   ar
    33    21    22   ar
    34    22    23   ar
    35    23    14    1
    36    23    18   ar
    37    12     1    1
    38    10     3    1
    39    30    25   ar
    40    35    31   ar
@<TRIPOS>MOLECULE
*****
 35 40 0 0 0
SMALL
GASTEIGER

@<TRIPOS>ATOM
      1 C         140.7804  139.1533  164.1337 C.3     1  UNL1        0.1534
      2 C         141.8647  138.7629  163.1737 C.3     1  UNL1        0.1067
      3 N         141.5478  138.5774  161.7194 N.3     1  UNL1       -0.2665
      4 C         142.6322  138.1869  160.7593 C.3     1  UNL1        0.0940
      5 C         142.3153  138.0014  159.3050 C.3     1  UNL1        0.1107
      6 N         140.9140  138.2064  158.8106 N.am    1  UNL1       -0.2764
      7 C         140.5971  138.0209  157.3563 C.2     1  UNL1        0.2301
      8 O         139.1958  138.2259  156.8620 O.2     1  UNL1       -0.2745
      9 C         139.8297  138.5968  159.7706 C.3     1  UNL1        0.1119
     10 C         140.1465  138.7824  161.2250 C.3     1  UNL1        0.1075
     11 C         139.0622  139.1728  162.1850 C.3     1  UNL1        0.1601
     12 O         139.3791  139.3583  163.6393 O.3     1  UNL1       -0.3489
     13 O         143.4456  139.6736  170.4484 O.2     1  UNL1       -0.2449
     14 C         142.0479  139.8953  169.9512 C.2     1  UNL1        0.3409
     15 O         140.9672  140.3026  170.9082 O.3     1  UNL1       -0.4451
     16 C         139.5695  140.5243  170.4110 C.3     1  UNL1        0.2134
     17 C         139.2525  140.3388  168.9566 C.3     1  UNL1        0.0740
     18 C         140.3333  139.9316  167.9996 C.ar    1  UNL1       -0.0124
     19 C         140.0165  139.7461  166.5452 C.ar    1  UNL1       -0.0058
     20 C         141.0972  139.3389  165.5881 C.ar    1  UNL1        0.0056
     21 C         142.4949  139.1171  166.0854 C.ar    1  UNL1       -0.0017
     22 C         142.8118  139.3026  167.5397 C.ar    1  UNL1        0.0059
     23 C         141.7310  139.7099  168.4968 C.ar    1  UNL1        0.0718
     24 C         141.6815  137.6304  156.3962 C.3     1  UNL1        0.1116
     25 C         142.0648  136.1882  156.2440 C.ar    1  UNL1       -0.0130
     26 C         141.1821  135.2553  155.4689 C.ar    1  UNL1       -0.0022
     27 C         141.5655  133.8132  155.3167 C.ar    1  UNL1        0.0190
     28 C         142.8315  133.3039  155.9394 C.ar    1  UNL1        0.0862
     29 C         143.7142  134.2367  156.7143 C.ar    1  UNL1        0.0190
     30 C         143.3309  135.6789  156.8667 C.ar    1  UNL1       -0.0022
     31 N         143.2148  131.8617  155.7871 N.ar    1  UNL1       -0.1886
     32 C         144.6133  131.3209  155.7445 C.ar    1  UNL1        0.2258
     33 N         144.5298  129.8321  155.5817 N.ar    1  UNL1       -0.1045
     34 N         143.0796  129.4528  155.5238 N.ar    1  UNL1       -0.0222
     35 N         142.2670  130.7071  155.6507 N.ar    1  UNL1       -0.0385
@<TRIPOS>BOND
     1    13    14    2
     2    14    15    1
     3    15    16    1
     4    16    17    1
     5    17    18    1
     6    18    19   ar
     7    19    20   ar
     8     1    20    1
     9     1     2    1
    10     2     3    1
    11     3     4    1
    12     4     5    1
    13     5     6    1
    14     6     7   am
    15     7     8    2
    16     7    24    1
    17    24    25    1
    18    25    26   ar
    19    26    27   ar
    20    27    28   ar
    21    28    31    1
    22    31    32   ar
    23    32    33   ar
    24    33    34   ar
    25    34    35   ar
    26    28    29   ar
    27    29    30   ar
    28     6     9    1
    29    10     9    1
    30    10    11    1
    31    11    12    1
    32    20    21   ar
    33    21    22   ar
    34    22    23   ar
    35    23    14    1
    36    23    18   ar
    37    12     1    1
    38    10     3    1
    39    30    25   ar
    40    35    31   ar
@<TRIPOS>MOLECULE
*****
 35 40 0 0 0
SMALL
GASTEIGER

@<TRIPOS>ATOM
      1 C         140.5752  141.3953  164.4448 C.3     1  UNL1        0.1534
      2 C         139.4753  141.8835  163.5494 C.3     1  UNL1        0.1067
      3 N         139.7124  142.0162  162.0742 N.3     1  UNL1       -0.2665
      4 C         138.6125  142.5044  161.1787 C.3     1  UNL1        0.0940
      5 C         138.8496  142.6371  159.7035 C.3     1  UNL1        0.1107
      6 N         140.1866  142.2817  159.1238 N.am    1  UNL1       -0.2764
      7 C         140.4238  142.4144  157.6487 C.2     1  UNL1        0.2301
      8 O         141.7608  142.0590  157.0690 O.2     1  UNL1       -0.2745
      9 C         141.2865  141.7935  160.0193 C.3     1  UNL1        0.1119
     10 C         141.0494  141.6608  161.4945 C.3     1  UNL1        0.1075
     11 C         142.1493  141.1726  162.3900 C.3     1  UNL1        0.1601
     12 O         141.9122  141.0399  163.8651 O.3     1  UNL1       -0.3489
     13 O         139.2192  139.5414  170.9236 O.2     1  UNL1       -0.2449
     14 C         139.6268  140.8642  170.3456 C.2     1  UNL1        0.3409
     15 O         139.7974  142.0542  171.2427 O.3     1  UNL1       -0.4451
     16 C         140.2050  143.3769  170.6647 C.3     1  UNL1        0.2134
     17 C         140.4421  143.5097  169.1895 C.3     1  UNL1        0.0740
     18 C         140.2715  142.3198  168.2924 C.ar    1  UNL1       -0.0124
     19 C         140.5086  142.4525  166.8172 C.ar    1  UNL1       -0.0058
     20 C         140.3381  141.2626  165.9201 C.ar    1  UNL1        0.0056
     21 C         139.9305  139.9398  166.4981 C.ar    1  UNL1       -0.0017
     22 C         139.6934  139.8070  167.9732 C.ar    1  UNL1        0.0059
     23 C         139.8639  140.9970  168.8704 C.ar    1  UNL1        0.0718
     24 C         139.3238  142.9026  156.7532 C.3     1  UNL1        0.1116
     25 C         139.2145  144.3626  156.4270 C.ar    1  UNL1       -0.0130
     26 C         138.3363  144.8153  155.2983 C.ar    1  UNL1       -0.0022
     27 C         138.2270  146.2752  154.9721 C.ar    1  UNL1        0.0190
     28 C         138.9959  147.2826  155.7747 C.ar    1  UNL1        0.0862
     29 C         139.8740  146.8300  156.9033 C.ar    1  UNL1        0.0190
     30 C         139.9834  145.3700  157.2295 C.ar    1  UNL1       -0.0022
     31 N         138.8866  148.7426  155.4485 N.ar    1  UNL1       -0.1886
     32 C         139.6018  149.4540  154.3384 C.ar    1  UNL1        0.2258
     33 N         139.2001  150.8987  154.3790 N.ar    1  UNL1       -0.1045
     34 N         138.2365  151.0801  155.5143 N.ar    1  UNL1       -0.0222
     35 N         138.0427  149.7477  156.1752 N.ar    1  UNL1       -0.0385
@<TRIPOS>BOND
     1    13    14    2
     2    14    15    1
     3    15    16    1
     4    16    17    1
     5    17    18    1
     6    18    19   ar
     7    19    20   ar
     8     1    20    1
     9     1     2    1
    10     2     3    1
    11     3     4    1
    12     4     5    1
    13     5     6    1
    14     6     7   am
    15     7     8    2
    16     7    24    1
    17    24    25    1
    18    25    26   ar
    19    26    27   ar
    20    27    28   ar
    21    28    31    1
    22    31    32   ar
    23    32    33   ar
    24    33    34   ar
    25    34    35   ar
    26    28    29   ar
    27    29    30   ar
    28     6     9    1
    29    10     9    1
    30    10    11    1
    31    11    12    1
    32    20    21   ar
    33    21    22   ar
    34    22    23   ar
    35    23    14    1
    36    23    18   ar
    37    12     1    1
    38    10     3    1
    39    30    25   ar
    40    35    31   ar
@<TRIPOS>MOLECULE
*****
 35 40 0 0 0
SMALL
GASTEIGER

@<TRIPOS>ATOM
      1 C         142.3712  137.3628  157.7018 C.3     1  UNL1        0.1534
      2 C         143.0577  137.1361  159.0160 C.3     1  UNL1        0.1067
      3 N         143.2025  138.2665  159.9913 N.3     1  UNL1       -0.2665
      4 C         143.8890  138.0398  161.3056 C.3     1  UNL1        0.0940
      5 C         144.0339  139.1702  162.2809 C.3     1  UNL1        0.1107
      6 N         143.4923  140.5273  161.9418 N.am    1  UNL1       -0.2764
      7 C         143.6372  141.6577  162.9171 C.2     1  UNL1        0.2301
      8 O         143.0957  143.0149  162.5781 O.2     1  UNL1       -0.2745
      9 C         142.8059  140.7541  160.6276 C.3     1  UNL1        0.1119
     10 C         142.6610  139.6236  159.6522 C.3     1  UNL1        0.1075
     11 C         141.9745  139.8503  158.3380 C.3     1  UNL1        0.1601
     12 O         141.8297  138.7199  157.3627 O.3     1  UNL1       -0.3489
     13 O         140.7529  132.9110  152.7205 O.2     1  UNL1       -0.2449
     14 C         141.7915  132.8412  153.8005 C.2     1  UNL1        0.3409
     15 O         142.6852  131.6411  153.9052 O.3     1  UNL1       -0.4451
     16 C         143.7238  131.5714  154.9852 C.3     1  UNL1        0.2134
     17 C         143.8688  132.7017  155.9605 C.3     1  UNL1        0.0740
     18 C         142.9751  133.9018  155.8558 C.ar    1  UNL1       -0.0124
     19 C         143.1200  135.0323  156.8311 C.ar    1  UNL1       -0.0058
     20 C         142.2263  136.2324  156.7264 C.ar    1  UNL1        0.0056
     21 C         141.1877  136.3021  155.6464 C.ar    1  UNL1       -0.0017
     22 C         141.0427  135.1718  154.6711 C.ar    1  UNL1        0.0059
     23 C         141.9365  133.9716  154.7758 C.ar    1  UNL1        0.0718
     24 C         144.3237  141.4311  164.2314 C.3     1  UNL1        0.1116
     25 C         143.5119  141.2195  165.4749 C.ar    1  UNL1       -0.0130
     26 C         143.3294  142.3432  166.4517 C.ar    1  UNL1       -0.0022
     27 C         142.5176  142.1316  167.6951 C.ar    1  UNL1        0.0190
     28 C         141.8883  140.7963  167.9619 C.ar    1  UNL1        0.0862
     29 C         142.0708  139.6727  166.9851 C.ar    1  UNL1        0.0190
     30 C         142.8826  139.8842  165.7416 C.ar    1  UNL1       -0.0022
     31 N         141.0765  140.5848  169.2053 N.ar    1  UNL1       -0.1886
     32 C         141.4450  141.0386  170.5867 C.ar    1  UNL1        0.2258
     33 N         140.3500  140.6165  171.5209 N.ar    1  UNL1       -0.1045
     34 N         139.3047  139.9018  170.7167 N.ar    1  UNL1       -0.0222
     35 N         139.7537  139.8821  169.2857 N.ar    1  UNL1       -0.0385
@<TRIPOS>BOND
     1    13    14    2
     2    14    15    1
     3    15    16    1
     4    16    17    1
     5    17    18    1
     6    18    19   ar
     7    19    20   ar
     8     1    20    1
     9     1     2    1
    10     2     3    1
    11     3     4    1
    12     4     5    1
    13     5     6    1
    14     6     7   am
    15     7     8    2
    16     7    24    1
    17    24    25    1
    18    25    26   ar
    19    26    27   ar
    20    27    28   ar
    21    28    31    1
    22    31    32   ar
    23    32    33   ar
    24    33    34   ar
    25    34    35   ar
    26    28    29   ar
    27    29    30   ar
    28     6     9    1
    29    10     9    1
    30    10    11    1
    31    11    12    1
    32    20    21   ar
    33    21    22   ar
    34    22    23   ar
    35    23    14    1
    36    23    18   ar
    37    12     1    1
    38    10     3    1
    39    30    25   ar
    40    35    31   ar
@<TRIPOS>MOLECULE
*****
 35 40 0 0 0
SMALL
GASTEIGER

@<TRIPOS>ATOM
      1 C         142.4825  140.8673  164.6574 C.3     1  UNL1        0.1534
      2 C         141.4882  140.2568  163.7148 C.3     1  UNL1        0.1067
      3 N         141.8543  140.0384  162.2767 N.3     1  UNL1       -0.2665
      4 C         140.8600  139.4280  161.3339 C.3     1  UNL1        0.0940
      5 C         141.2261  139.2096  159.8958 C.3     1  UNL1        0.1107
      6 N         142.5866  139.6016  159.4004 N.am    1  UNL1       -0.2764
      7 C         142.9527  139.3832  157.9623 C.2     1  UNL1        0.2301
      8 O         144.3132  139.7752  157.4668 O.2     1  UNL1       -0.2745
      9 C         143.5809  140.2120  160.3430 C.3     1  UNL1        0.1119
     10 C         143.2148  140.4305  161.7812 C.3     1  UNL1        0.1075
     11 C         144.2091  141.0409  162.7239 C.3     1  UNL1        0.1601
     12 O         143.8429  141.2593  164.1620 O.3     1  UNL1       -0.3489
     13 O         141.9119  142.5575  171.2958 O.2     1  UNL1       -0.2449
     14 C         141.0181  141.7411  170.4101 C.2     1  UNL1        0.3409
     15 O         139.7583  141.1430  170.9624 O.3     1  UNL1       -0.4451
     16 C         138.8645  140.3266  170.0767 C.3     1  UNL1        0.2134
     17 C         139.2306  140.1081  168.6386 C.3     1  UNL1        0.0740
     18 C         140.4904  140.7061  168.0862 C.ar    1  UNL1       -0.0124
     19 C         140.8565  140.4877  166.6480 C.ar    1  UNL1       -0.0058
     20 C         142.1164  141.0857  166.0956 C.ar    1  UNL1        0.0056
     21 C         143.0101  141.9022  166.9814 C.ar    1  UNL1       -0.0017
     22 C         142.6441  142.1206  168.4195 C.ar    1  UNL1        0.0059
     23 C         141.3842  141.5226  168.9719 C.ar    1  UNL1        0.0718
     24 C         141.9584  138.7727  157.0195 C.3     1  UNL1        0.1116
     25 C         142.0291  137.3090  156.6995 C.ar    1  UNL1       -0.0130
     26 C         142.9922  136.4258  157.4361 C.ar    1  UNL1       -0.0022
     27 C         143.0629  134.9621  157.1160 C.ar    1  UNL1        0.0190
     28 C         142.1704  134.3815  156.0594 C.ar    1  UNL1        0.0862
     29 C         141.2073  135.2645  155.3228 C.ar    1  UNL1        0.0190
     30 C         141.1366  136.7284  155.6429 C.ar    1  UNL1       -0.0022
     31 N         142.2411  132.9177  155.7393 N.ar    1  UNL1       -0.1886
     32 C         142.0079  132.2972  154.3938 C.ar    1  UNL1        0.2258
     33 N         142.1800  130.8135  154.5314 N.ar    1  UNL1       -0.1045
     34 N         142.5197  130.5171  155.9622 N.ar    1  UNL1       -0.0222
     35 N         142.5574  131.8175  156.7087 N.ar    1  UNL1       -0.0385
@<TRIPOS>BOND
     1    13    14    2
     2    14    15    1
     3    15    16    1
     4    16    17    1
     5    17    18    1
     6    18    19   ar
     7    19    20   ar
     8     1    20    1
     9     1     2    1
    10     2     3    1
    11     3     4    1
    12     4     5    1
    13     5     6    1
    14     6     7   am
    15     7     8    2
    16     7    24    1
    17    24    25    1
    18    25    26   ar
    19    26    27   ar
    20    27    28   ar
    21    28    31    1
    22    31    32   ar
    23    32    33   ar
    24    33    34   ar
    25    34    35   ar
    26    28    29   ar
    27    29    30   ar
    28     6     9    1
    29    10     9    1
    30    10    11    1
    31    11    12    1
    32    20    21   ar
    33    21    22   ar
    34    22    23   ar
    35    23    14    1
    36    23    18   ar
    37    12     1    1
    38    10     3    1
    39    30    25   ar
    40    35    31   ar
@<TRIPOS>MOLECULE
*****
 35 40 0 0 0
SMALL
GASTEIGER

@<TRIPOS>ATOM
      1 C         142.2913  137.7945  157.7041 C.3     1  UNL1        0.1534
      2 C         141.0988  138.0287  158.5834 C.3     1  UNL1        0.1067
      3 N         141.1081  139.1534  159.5757 N.3     1  UNL1       -0.2665
      4 C         139.9155  139.3876  160.4550 C.3     1  UNL1        0.0940
      5 C         139.9248  140.5124  161.4474 C.3     1  UNL1        0.1107
      6 N         141.1265  141.4029  161.5606 N.am    1  UNL1       -0.2764
      7 C         141.1358  142.5276  162.5529 C.2     1  UNL1        0.2301
      8 O         142.3375  143.4181  162.6661 O.2     1  UNL1       -0.2745
      9 C         142.3190  141.1687  160.6813 C.3     1  UNL1        0.1119
     10 C         142.3098  140.0439  159.6889 C.3     1  UNL1        0.1075
     11 C         143.5023  139.8097  158.8096 C.3     1  UNL1        0.1601
     12 O         143.4930  138.6850  157.8173 O.3     1  UNL1       -0.3489
     13 O         141.4310  133.4042  152.4853 O.2     1  UNL1       -0.2449
     14 C         142.2544  133.2955  153.7344 C.2     1  UNL1        0.3409
     15 O         143.0686  132.0622  153.9910 O.3     1  UNL1       -0.4451
     16 C         143.8920  131.9535  155.2401 C.3     1  UNL1        0.2134
     17 C         143.9012  133.0782  156.2325 C.3     1  UNL1        0.0740
     18 C         143.0870  134.3116  155.9759 C.ar    1  UNL1       -0.0124
     19 C         143.0963  135.4363  156.9683 C.ar    1  UNL1       -0.0058
     20 C         142.2821  136.6697  156.7117 C.ar    1  UNL1        0.0056
     21 C         141.4587  136.7783  155.4626 C.ar    1  UNL1       -0.0017
     22 C         141.4494  135.6537  154.4702 C.ar    1  UNL1        0.0059
     23 C         142.2636  134.4202  154.7268 C.ar    1  UNL1        0.0718
     24 C         139.9433  142.7619  163.4322 C.3     1  UNL1        0.1116
     25 C         139.9655  142.3097  164.8623 C.ar    1  UNL1       -0.0130
     26 C         139.5687  140.9058  165.2113 C.ar    1  UNL1       -0.0022
     27 C         139.5909  140.4537  166.6413 C.ar    1  UNL1        0.0190
     28 C         140.0099  141.4054  167.7224 C.ar    1  UNL1        0.0862
     29 C         140.4066  142.8092  167.3734 C.ar    1  UNL1        0.0190
     30 C         140.3844  143.2614  165.9434 C.ar    1  UNL1       -0.0022
     31 N         140.0321  140.9533  169.1524 N.ar    1  UNL1       -0.1886
     32 C         140.8463  141.5600  170.2564 C.ar    1  UNL1        0.2258
     33 N         140.5614  140.7967  171.5159 N.ar    1  UNL1       -0.1045
     34 N         139.5711  139.7182  171.1902 N.ar    1  UNL1       -0.0222
     35 N         139.2439  139.8149  169.7296 N.ar    1  UNL1       -0.0385
@<TRIPOS>BOND
     1    13    14    2
     2    14    15    1
     3    15    16    1
     4    16    17    1
     5    17    18    1
     6    18    19   ar
     7    19    20   ar
     8     1    20    1
     9     1     2    1
    10     2     3    1
    11     3     4    1
    12     4     5    1
    13     5     6    1
    14     6     7   am
    15     7     8    2
    16     7    24    1
    17    24    25    1
    18    25    26   ar
    19    26    27   ar
    20    27    28   ar
    21    28    31    1
    22    31    32   ar
    23    32    33   ar
    24    33    34   ar
    25    34    35   ar
    26    28    29   ar
    27    29    30   ar
    28     6     9    1
    29    10     9    1
    30    10    11    1
    31    11    12    1
    32    20    21   ar
    33    21    22   ar
    34    22    23   ar
    35    23    14    1
    36    23    18   ar
    37    12     1    1
    38    10     3    1
    39    30    25   ar
    40    35    31   ar
@<TRIPOS>MOLECULE
*****
 35 40 0 0 0
SMALL
GASTEIGER

@<TRIPOS>ATOM
      1 C         140.8706  136.5023  155.7602 C.3     1  UNL1        0.1534
      2 C         139.5291  136.5247  155.0895 C.3     1  UNL1        0.1067
      3 N         138.6699  137.7515  155.1718 N.3     1  UNL1       -0.2665
      4 C         137.3283  137.7739  154.5012 C.3     1  UNL1        0.0940
      5 C         136.4691  139.0007  154.5834 C.3     1  UNL1        0.1107
      6 N         136.9515  140.2050  155.3363 N.am    1  UNL1       -0.2764
      7 C         136.0923  141.4318  155.4186 C.2     1  UNL1        0.2301
      8 O         136.5747  142.6362  156.1715 O.2     1  UNL1       -0.2745
      9 C         138.2930  140.1826  156.0070 C.3     1  UNL1        0.1119
     10 C         139.1523  138.9558  155.9247 C.3     1  UNL1        0.1075
     11 C         140.4938  138.9334  156.5954 C.3     1  UNL1        0.1601
     12 O         141.3529  137.7066  156.5131 O.3     1  UNL1       -0.3489
     13 O         144.2468  130.7171  154.2164 O.2     1  UNL1       -0.2449
     14 C         144.3075  131.5951  155.4311 C.2     1  UNL1        0.3409
     15 O         145.2273  131.2464  156.5634 O.3     1  UNL1       -0.4451
     16 C         145.2879  132.1244  157.7781 C.3     1  UNL1        0.2134
     17 C         144.4287  133.3512  157.8604 C.3     1  UNL1        0.0740
     18 C         143.5089  133.6999  156.7280 C.ar    1  UNL1       -0.0124
     19 C         142.6497  134.9267  156.8103 C.ar    1  UNL1       -0.0058
     20 C         141.7298  135.2755  155.6779 C.ar    1  UNL1        0.0056
     21 C         141.6692  134.3974  154.4633 C.ar    1  UNL1       -0.0017
     22 C         142.5284  133.1707  154.3810 C.ar    1  UNL1        0.0059
     23 C         143.4483  132.8219  155.5134 C.ar    1  UNL1        0.0718
     24 C         134.7507  141.4543  154.7480 C.3     1  UNL1        0.1116
     25 C         133.5389  140.9557  155.4779 C.ar    1  UNL1       -0.0130
     26 C         132.1810  141.4891  155.1291 C.ar    1  UNL1       -0.0022
     27 C         130.9692  140.9904  155.8590 C.ar    1  UNL1        0.0190
     28 C         131.1152  139.9584  156.9378 C.ar    1  UNL1        0.0862
     29 C         132.4730  139.4250  157.2866 C.ar    1  UNL1        0.0190
     30 C         133.6849  139.9237  156.5566 C.ar    1  UNL1       -0.0022
     31 N         129.9034  139.4598  157.6677 N.ar    1  UNL1       -0.1886
     32 C         128.4890  139.9008  157.4327 C.ar    1  UNL1        0.2258
     33 N         127.6046  139.1462  158.3805 N.ar    1  UNL1       -0.1045
     34 N         128.4725  138.2388  159.2014 N.ar    1  UNL1       -0.0222
     35 N         129.8931  138.4326  158.7608 N.ar    1  UNL1       -0.0385
@<TRIPOS>BOND
     1    13    14    2
     2    14    15    1
     3    15    16    1
     4    16    17    1
     5    17    18    1
     6    18    19   ar
     7    19    20   ar
     8     1    20    1
     9     1     2    1
    10     2     3    1
    11     3     4    1
    12     4     5    1
    13     5     6    1
    14     6     7   am
    15     7     8    2
    16     7    24    1
    17    24    25    1
    18    25    26   ar
    19    26    27   ar
    20    27    28   ar
    21    28    31    1
    22    31    32   ar
    23    32    33   ar
    24    33    34   ar
    25    34    35   ar
    26    28    29   ar
    27    29    30   ar
    28     6     9    1
    29    10     9    1
    30    10    11    1
    31    11    12    1
    32    20    21   ar
    33    21    22   ar
    34    22    23   ar
    35    23    14    1
    36    23    18   ar
    37    12     1    1
    38    10     3    1
    39    30    25   ar
    40    35    31   ar
@<TRIPOS>MOLECULE
*****
 35 40 0 0 0
SMALL
GASTEIGER

@<TRIPOS>ATOM
      1 C         139.2649  141.3964  164.8712 C.3     1  UNL1        0.1534
      2 C         140.3573  141.8619  163.9548 C.3     1  UNL1        0.1067
      3 N         140.0709  142.0856  162.4995 N.3     1  UNL1       -0.2665
      4 C         141.1633  142.5512  161.5830 C.3     1  UNL1        0.0940
      5 C         140.8769  142.7748  160.1277 C.3     1  UNL1        0.1107
      6 N         139.4981  142.5330  159.5889 N.am    1  UNL1       -0.2764
      7 C         139.2117  142.7567  158.1336 C.2     1  UNL1        0.2301
      8 O         137.8329  142.5148  157.5947 O.2     1  UNL1       -0.2745
      9 C         138.4057  142.0674  160.5053 C.3     1  UNL1        0.1119
     10 C         138.6921  141.8437  161.9607 C.3     1  UNL1        0.1075
     11 C         137.5997  141.3782  162.8771 C.3     1  UNL1        0.1601
     12 O         137.8861  141.1545  164.3324 O.3     1  UNL1       -0.3489
     13 O         139.7644  139.3578  171.4168 O.2     1  UNL1       -0.2449
     14 C         140.4104  140.5015  170.6925 C.2     1  UNL1        0.3409
     15 O         141.3427  141.4215  171.4235 O.3     1  UNL1       -0.4451
     16 C         141.9886  142.5652  170.6992 C.3     1  UNL1        0.2134
     17 C         141.7023  142.7890  169.2439 C.3     1  UNL1        0.0740
     18 C         140.7700  141.8690  168.5129 C.ar    1  UNL1       -0.0124
     19 C         140.4836  142.0927  167.0576 C.ar    1  UNL1       -0.0058
     20 C         139.5513  141.1727  166.3266 C.ar    1  UNL1        0.0056
     21 C         138.9054  140.0289  167.0509 C.ar    1  UNL1       -0.0017
     22 C         139.1917  139.8052  168.5062 C.ar    1  UNL1        0.0059
     23 C         140.1240  140.7252  169.2372 C.ar    1  UNL1        0.0718
     24 C         140.3041  143.2222  157.2171 C.3     1  UNL1        0.1116
     25 C         140.1715  144.5310  156.4963 C.ar    1  UNL1       -0.0130
     26 C         140.0009  145.8019  157.2746 C.ar    1  UNL1       -0.0022
     27 C         139.8682  147.1107  156.5538 C.ar    1  UNL1        0.0190
     28 C         139.9063  147.1485  155.0547 C.ar    1  UNL1        0.0862
     29 C         140.0769  145.8777  154.2765 C.ar    1  UNL1        0.0190
     30 C         140.2095  144.5688  154.9973 C.ar    1  UNL1       -0.0022
     31 N         139.7737  148.4573  154.3340 N.ar    1  UNL1       -0.1886
     32 C         139.1307  149.7002  154.8742 C.ar    1  UNL1        0.2258
     33 N         139.2204  150.7640  153.8205 N.ar    1  UNL1       -0.1045
     34 N         139.9188  150.1785  152.6290 N.ar    1  UNL1       -0.0222
     35 N         140.2607  148.7530  152.9463 N.ar    1  UNL1       -0.0385
@<TRIPOS>BOND
     1    13    14    2
     2    14    15    1
     3    15    16    1
     4    16    17    1
     5    17    18    1
     6    18    19   ar
     7    19    20   ar
     8     1    20    1
     9     1     2    1
    10     2     3    1
    11     3     4    1
    12     4     5    1
    13     5     6    1
    14     6     7   am
    15     7     8    2
    16     7    24    1
    17    24    25    1
    18    25    26   ar
    19    26    27   ar
    20    27    28   ar
    21    28    31    1
    22    31    32   ar
    23    32    33   ar
    24    33    34   ar
    25    34    35   ar
    26    28    29   ar
    27    29    30   ar
    28     6     9    1
    29    10     9    1
    30    10    11    1
    31    11    12    1
    32    20    21   ar
    33    21    22   ar
    34    22    23   ar
    35    23    14    1
    36    23    18   ar
    37    12     1    1
    38    10     3    1
    39    30    25   ar
    40    35    31   ar
