@<TRIPOS>MOLECULE
*****
 30 34 0 0 0
SMALL
GASTEIGER

@<TRIPOS>ATOM
      1 C         142.1002  144.0878  161.8081 C.3     1  UNL1        0.0730
      2 C         144.2669  141.6301  163.8891 C.3     1  UNL1        0.0351
      3 C         145.6842  141.1419  163.9439 C.3     1  UNL1        0.0072
      4 C         145.2783  142.1523  162.9122 C.3     1  UNL1        0.0214
      5 C         144.5898  143.1365  162.0138 C.3     1  UNL1        0.0724
      6 N         143.1528  143.2226  162.4355 N.3     1  UNL1       -0.2724
      7 C         142.9533  142.2916  163.5944 C.3     1  UNL1        0.0761
      8 C         142.5575  140.6267  167.3274 C.ar    1  UNL1        0.1384
      9 C         142.7794  139.1433  167.3320 C.ar    1  UNL1        0.0369
     10 C         143.4972  138.4887  166.1890 C.ar    1  UNL1        0.0028
     11 C         143.9930  139.3176  165.0414 C.ar    1  UNL1       -0.0040
     12 C         143.7711  140.8011  165.0368 C.ar    1  UNL1       -0.0184
     13 C         143.0533  141.4556  166.1798 C.ar    1  UNL1        0.0327
     14 C         142.4483  142.4678  169.1572 C.3     1  UNL1        0.2525
     15 O         141.8398  141.2812  168.4704 O.3     1  UNL1       -0.4714
     16 C         141.3485  145.0802  162.6449 C.3     1  UNL1        0.0294
     17 C         140.0073  145.5779  162.1941 C.3     1  UNL1        0.0666
     18 S         138.7605  145.0922  162.8721 S.3     1  UNL1       -0.0756
     19 C         138.4111  143.6338  162.8441 C.ar    1  UNL1        0.1933
     20 N         137.6415  142.9321  161.7646 N.ar    1  UNL1       -0.1220
     21 N         137.5246  141.4856  162.1440 N.ar    1  UNL1       -0.1250
     22 C         138.2219  141.2933  163.4581 C.ar    1  UNL1        0.2029
     23 N         138.7698  142.6210  163.8908 N.ar    1  UNL1       -0.2860
     24 C         139.5409  142.8887  165.1492 C.3     1  UNL1        0.1341
     25 C         138.3491  140.0004  164.2079 C.ar    1  UNL1        0.1964
     26 O         138.0080  139.7815  165.6521 O.2     1  UNL1       -0.4283
     27 C         138.2877  138.3452  165.9819 C.ar    1  UNL1        0.2849
     28 N         138.8017  137.6763  164.7415 N.ar    1  UNL1       -0.2085
     29 C         138.8396  138.6994  163.6452 C.ar    1  UNL1        0.1001
     30 C         139.2892  138.4629  162.2338 C.3     1  UNL1        0.0556
@<TRIPOS>BOND
     1    14    15    1
     2    15     8    1
     3     8     9   ar
     4     9    10   ar
     5    10    11   ar
     6    11    12   ar
     7    12     2    1
     8     2     3    1
     9     3     4    1
    10     4     5    1
    11     5     6    1
    12     6     1    1
    13     1    16    1
    14    16    17    1
    15    17    18    1
    16    18    19    1
    17    19    20   ar
    18    20    21   ar
    19    21    22   ar
    20    22    25    1
    21    25    26   ar
    22    26    27   ar
    23    27    28   ar
    24    28    29   ar
    25    29    30    1
    26    22    23   ar
    27    23    24    1
    28     6     7    1
    29    12    13   ar
    30    13     8   ar
    31     4     2    1
    32    23    19   ar
    33     7     2    1
    34    29    25   ar
@<TRIPOS>MOLECULE
*****
 30 34 0 0 0
SMALL
GASTEIGER

@<TRIPOS>ATOM
      1 C         141.8391  145.4238  163.5787 C.3     1  UNL1        0.0730
      2 C         138.9376  142.9693  164.3675 C.3     1  UNL1        0.0351
      3 C         137.4989  142.7642  163.9960 C.3     1  UNL1        0.0072
      4 C         138.2680  143.9121  163.4122 C.3     1  UNL1        0.0214
      5 C         139.2733  144.9463  163.0004 C.3     1  UNL1        0.0724
      6 N         140.5643  144.6427  163.7013 N.3     1  UNL1       -0.2724
      7 C         140.3568  143.4208  164.5462 C.3     1  UNL1        0.0761
      8 C         140.0766  140.6389  167.3713 C.ar    1  UNL1        0.1384
      9 C         139.2174  139.4322  167.1354 C.ar    1  UNL1        0.0369
     10 C         138.2650  139.4045  165.9769 C.ar    1  UNL1        0.0028
     11 C         138.1717  140.5835  165.0543 C.ar    1  UNL1       -0.0040
     12 C         139.0309  141.7902  165.2902 C.ar    1  UNL1       -0.0184
     13 C         139.9833  141.8179  166.4486 C.ar    1  UNL1        0.0327
     14 C         142.3666  141.3299  168.3853 C.3     1  UNL1        0.2525
     15 O         141.0291  140.6666  168.5297 O.3     1  UNL1       -0.4714
     16 C         143.1464  144.7889  163.9499 C.3     1  UNL1        0.0294
     17 C         144.2444  144.6838  162.9335 C.3     1  UNL1        0.0666
     18 S         144.3553  143.4600  162.0732 S.3     1  UNL1       -0.0756
     19 C         144.2370  142.0972  162.6887 C.ar    1  UNL1        0.1933
     20 N         145.3039  141.3855  163.4665 N.ar    1  UNL1       -0.1220
     21 N         144.7573  140.0553  163.8931 N.ar    1  UNL1       -0.1250
     22 C         143.3526  139.9450  163.3788 C.ar    1  UNL1        0.2029
     23 N         143.0309  141.2070  162.6345 N.ar    1  UNL1       -0.2860
     24 C         141.7315  141.5231  161.9552 C.3     1  UNL1        0.1341
     25 C         142.4311  138.7777  163.5746 C.ar    1  UNL1        0.1964
     26 O         141.8112  138.3517  164.8724 O.2     1  UNL1       -0.4283
     27 C         140.9648  137.1422  164.6068 C.ar    1  UNL1        0.2849
     28 N         141.0616  136.8205  163.1448 N.ar    1  UNL1       -0.2085
     29 C         141.9679  137.8314  162.5070 C.ar    1  UNL1        0.1001
     30 C         142.3447  137.8862  161.0561 C.3     1  UNL1        0.0556
@<TRIPOS>BOND
     1    14    15    1
     2    15     8    1
     3     8     9   ar
     4     9    10   ar
     5    10    11   ar
     6    11    12   ar
     7    12     2    1
     8     2     3    1
     9     3     4    1
    10     4     5    1
    11     5     6    1
    12     6     1    1
    13     1    16    1
    14    16    17    1
    15    17    18    1
    16    18    19    1
    17    19    20   ar
    18    20    21   ar
    19    21    22   ar
    20    22    25    1
    21    25    26   ar
    22    26    27   ar
    23    27    28   ar
    24    28    29   ar
    25    29    30    1
    26    22    23   ar
    27    23    24    1
    28     6     7    1
    29    12    13   ar
    30    13     8   ar
    31     4     2    1
    32    23    19   ar
    33     7     2    1
    34    29    25   ar
@<TRIPOS>MOLECULE
*****
 30 34 0 0 0
SMALL
GASTEIGER

@<TRIPOS>ATOM
      1 C         143.8165  141.6390  160.5888 C.3     1  UNL1        0.0730
      2 C         141.9811  143.9884  163.0741 C.3     1  UNL1        0.0351
      3 C         142.2797  145.1857  163.9270 C.3     1  UNL1        0.0072
      4 C         143.3601  144.5787  163.0817 C.3     1  UNL1        0.0214
      5 C         144.2154  143.7705  162.1517 C.3     1  UNL1        0.0724
      6 N         143.3651  142.6807  161.5692 N.3     1  UNL1       -0.2724
      7 C         141.9843  142.8154  162.1393 C.3     1  UNL1        0.0761
      8 C         138.1922  142.8088  163.1254 C.ar    1  UNL1        0.1384
      9 C         137.6512  143.6418  164.2493 C.ar    1  UNL1        0.0369
     10 C         138.5534  144.5904  164.9815 C.ar    1  UNL1        0.0028
     11 C         139.9967  144.7059  164.5898 C.ar    1  UNL1       -0.0040
     12 C         140.5378  143.8729  163.4659 C.ar    1  UNL1       -0.0184
     13 C         139.6355  142.9243  162.7336 C.ar    1  UNL1        0.0327
     14 C         137.6094  140.3950  162.3613 C.3     1  UNL1        0.2525
     15 O         137.2900  141.8602  162.3931 O.3     1  UNL1       -0.4714
     16 C         143.0633  140.3475  160.4666 C.3     1  UNL1        0.0294
     17 C         143.7982  139.0771  160.1575 C.3     1  UNL1        0.0666
     18 S         143.6926  137.9045  161.0870 S.3     1  UNL1       -0.0756
     19 C         142.8451  137.9995  162.3210 C.ar    1  UNL1        0.1933
     20 N         141.4775  137.4096  162.4989 N.ar    1  UNL1       -0.1220
     21 N         141.0036  137.7466  163.8816 N.ar    1  UNL1       -0.1250
     22 C         142.0783  138.5447  164.5582 C.ar    1  UNL1        0.2029
     23 N         143.2165  138.7010  163.5938 N.ar    1  UNL1       -0.2860
     24 C         144.5005  139.4308  163.8560 C.3     1  UNL1        0.1341
     25 C         142.0244  139.0907  165.9543 C.ar    1  UNL1        0.1964
     26 O         142.9797  138.7677  167.0648 O.2     1  UNL1       -0.4283
     27 C         142.5515  139.5330  168.2818 C.ar    1  UNL1        0.2849
     28 N         141.3316  140.3289  167.9235 N.ar    1  UNL1       -0.2085
     29 C         141.0059  140.0556  166.4850 C.ar    1  UNL1        0.1001
     30 C         139.8624  140.6438  165.7127 C.3     1  UNL1        0.0556
@<TRIPOS>BOND
     1    14    15    1
     2    15     8    1
     3     8     9   ar
     4     9    10   ar
     5    10    11   ar
     6    11    12   ar
     7    12     2    1
     8     2     3    1
     9     3     4    1
    10     4     5    1
    11     5     6    1
    12     6     1    1
    13     1    16    1
    14    16    17    1
    15    17    18    1
    16    18    19    1
    17    19    20   ar
    18    20    21   ar
    19    21    22   ar
    20    22    25    1
    21    25    26   ar
    22    26    27   ar
    23    27    28   ar
    24    28    29   ar
    25    29    30    1
    26    22    23   ar
    27    23    24    1
    28     6     7    1
    29    12    13   ar
    30    13     8   ar
    31     4     2    1
    32    23    19   ar
    33     7     2    1
    34    29    25   ar
@<TRIPOS>MOLECULE
*****
 30 34 0 0 0
SMALL
GASTEIGER

@<TRIPOS>ATOM
      1 C         138.6447  138.9648  162.5663 C.3     1  UNL1        0.0730
      2 C         139.3395  142.7289  163.2098 C.3     1  UNL1        0.0351
      3 C         138.5714  143.9928  163.4598 C.3     1  UNL1        0.0072
      4 C         137.8405  142.6989  163.2554 C.3     1  UNL1        0.0214
      5 C         137.3978  141.2853  163.0199 C.3     1  UNL1        0.0724
      6 N         138.6232  140.4416  162.8287 N.3     1  UNL1       -0.2724
      7 C         139.8232  141.3338  162.9461 C.3     1  UNL1        0.0761
      8 C         143.2737  143.1879  162.9609 C.ar    1  UNL1        0.1384
      9 C         143.4215  144.6130  163.4049 C.ar    1  UNL1        0.0369
     10 C         142.2086  145.4101  163.7839 C.ar    1  UNL1        0.0028
     11 C         140.8480  144.7821  163.7188 C.ar    1  UNL1       -0.0040
     12 C         140.7002  143.3570  163.2748 C.ar    1  UNL1       -0.0184
     13 C         141.9131  142.5599  162.8959 C.ar    1  UNL1        0.0327
     14 C         144.3603  140.9240  162.2944 C.3     1  UNL1        0.2525
     15 O         144.4865  142.3907  162.5819 O.3     1  UNL1       -0.4714
     16 C         138.7529  138.0012  163.7107 C.3     1  UNL1        0.0294
     17 C         139.3463  138.4481  165.0138 C.3     1  UNL1        0.0666
     18 S         138.4760  139.0899  166.0533 S.3     1  UNL1       -0.0756
     19 C         139.0865  139.6348  167.3104 C.ar    1  UNL1        0.1933
     20 N         138.5700  139.4274  168.7033 N.ar    1  UNL1       -0.1220
     21 N         139.4850  140.1472  169.6491 N.ar    1  UNL1       -0.1250
     22 C         140.5671  140.7995  168.8407 C.ar    1  UNL1        0.2029
     23 N         140.3209  140.4829  167.3953 N.ar    1  UNL1       -0.2860
     24 C         141.1614  140.9350  166.2381 C.3     1  UNL1        0.1341
     25 C         141.6972  141.6238  169.3825 C.ar    1  UNL1        0.1964
     26 O         143.1277  141.1887  169.5017 O.2     1  UNL1       -0.4283
     27 C         143.9097  142.3239  170.0932 C.ar    1  UNL1        0.2849
     28 N         142.9625  143.4606  170.3396 N.ar    1  UNL1       -0.2085
     29 C         141.5951  143.0279  169.9003 C.ar    1  UNL1        0.1001
     30 C         140.3450  143.8542  169.9672 C.3     1  UNL1        0.0556
@<TRIPOS>BOND
     1    14    15    1
     2    15     8    1
     3     8     9   ar
     4     9    10   ar
     5    10    11   ar
     6    11    12   ar
     7    12     2    1
     8     2     3    1
     9     3     4    1
    10     4     5    1
    11     5     6    1
    12     6     1    1
    13     1    16    1
    14    16    17    1
    15    17    18    1
    16    18    19    1
    17    19    20   ar
    18    20    21   ar
    19    21    22   ar
    20    22    25    1
    21    25    26   ar
    22    26    27   ar
    23    27    28   ar
    24    28    29   ar
    25    29    30    1
    26    22    23   ar
    27    23    24    1
    28     6     7    1
    29    12    13   ar
    30    13     8   ar
    31     4     2    1
    32    23    19   ar
    33     7     2    1
    34    29    25   ar
@<TRIPOS>MOLECULE
*****
 30 34 0 0 0
SMALL
GASTEIGER

@<TRIPOS>ATOM
      1 C         144.2712  140.4786  163.6446 C.3     1  UNL1        0.0730
      2 C         142.1025  143.6962  163.5461 C.3     1  UNL1        0.0351
      3 C         142.2747  145.1678  163.3124 C.3     1  UNL1        0.0072
      4 C         143.4625  144.2540  163.2477 C.3     1  UNL1        0.0214
      5 C         144.4404  143.1167  163.2483 C.3     1  UNL1        0.0724
      6 N         143.6848  141.8559  163.5471 N.3     1  UNL1       -0.2724
      7 C         142.2399  142.2140  163.7311 C.3     1  UNL1        0.0761
      8 C         138.2213  142.9533  163.1795 C.ar    1  UNL1        0.1384
      9 C         137.6596  143.8476  164.2447 C.ar    1  UNL1        0.0369
     10 C         138.5789  144.6914  165.0771 C.ar    1  UNL1        0.0028
     11 C         140.0599  144.6409  164.8443 C.ar    1  UNL1       -0.0040
     12 C         140.6215  143.7467  163.7790 C.ar    1  UNL1       -0.0184
     13 C         139.7022  142.9028  162.9466 C.ar    1  UNL1        0.0327
     14 C         137.7432  140.7530  161.8834 C.3     1  UNL1        0.2525
     15 O         137.3020  142.1095  162.3471 O.3     1  UNL1       -0.4714
     16 C         143.5483  139.3112  163.0408 C.3     1  UNL1        0.0294
     17 C         142.8220  138.3406  163.9240 C.3     1  UNL1        0.0666
     18 S         141.6220  138.7895  164.7041 S.3     1  UNL1       -0.0756
     19 C         141.7990  139.4410  166.0436 C.ar    1  UNL1        0.1933
     20 N         142.9360  139.2083  166.9939 N.ar    1  UNL1       -0.1220
     21 N         142.7098  140.0630  168.2056 N.ar    1  UNL1       -0.1250
     22 C         141.4329  140.8239  168.0042 C.ar    1  UNL1        0.2029
     23 N         140.8700  140.4395  166.6680 N.ar    1  UNL1       -0.2860
     24 C         139.6009  140.9620  166.0626 C.3     1  UNL1        0.1341
     25 C         140.8256  141.7983  168.9695 C.ar    1  UNL1        0.1964
     26 O         141.2795  143.2091  169.2011 O.2     1  UNL1       -0.4283
     27 C         140.3922  143.8156  170.2474 C.ar    1  UNL1        0.2849
     28 N         139.3898  142.7797  170.6625 N.ar    1  UNL1       -0.2085
     29 C         139.6578  141.5330  169.8726 C.ar    1  UNL1        0.1001
     30 C         138.8922  140.2467  169.9691 C.3     1  UNL1        0.0556
@<TRIPOS>BOND
     1    14    15    1
     2    15     8    1
     3     8     9   ar
     4     9    10   ar
     5    10    11   ar
     6    11    12   ar
     7    12     2    1
     8     2     3    1
     9     3     4    1
    10     4     5    1
    11     5     6    1
    12     6     1    1
    13     1    16    1
    14    16    17    1
    15    17    18    1
    16    18    19    1
    17    19    20   ar
    18    20    21   ar
    19    21    22   ar
    20    22    25    1
    21    25    26   ar
    22    26    27   ar
    23    27    28   ar
    24    28    29   ar
    25    29    30    1
    26    22    23   ar
    27    23    24    1
    28     6     7    1
    29    12    13   ar
    30    13     8   ar
    31     4     2    1
    32    23    19   ar
    33     7     2    1
    34    29    25   ar
@<TRIPOS>MOLECULE
*****
 30 34 0 0 0
SMALL
GASTEIGER

@<TRIPOS>ATOM
      1 C         139.4026  138.2447  161.6608 C.3     1  UNL1        0.0730
      2 C         142.2426  138.9031  164.2232 C.3     1  UNL1        0.0351
      3 C         142.8224  138.2714  165.4540 C.3     1  UNL1        0.0072
      4 C         141.6625  137.6261  164.7552 C.3     1  UNL1        0.0214
      5 C         140.5281  137.2241  163.8601 C.3     1  UNL1        0.0724
      6 N         140.4070  138.2525  162.7749 N.3     1  UNL1       -0.2724
      7 C         141.4666  139.2901  162.9993 C.3     1  UNL1        0.0761
      8 C         143.5889  142.6348  164.3306 C.ar    1  UNL1        0.1384
      9 C         145.0579  142.4122  164.1247 C.ar    1  UNL1        0.0369
     10 C         145.5885  141.0199  163.9517 C.ar    1  UNL1        0.0028
     11 C         144.6501  139.8502  163.9845 C.ar    1  UNL1       -0.0040
     12 C         143.1811  140.0728  164.1904 C.ar    1  UNL1       -0.0184
     13 C         142.6505  141.4651  164.3634 C.ar    1  UNL1        0.0327
     14 C         142.3683  144.7140  163.3626 C.3     1  UNL1        0.2525
     15 O         143.0583  144.0271  164.5036 O.3     1  UNL1       -0.4714
     16 C         138.1296  139.0271  161.7931 C.3     1  UNL1        0.0294
     17 C         138.1795  140.4927  162.1079 C.3     1  UNL1        0.0666
     18 S         137.6347  140.9990  163.4106 S.3     1  UNL1       -0.0756
     19 C         138.3204  140.6477  164.6976 C.ar    1  UNL1        0.1933
     20 N         138.2846  139.3122  165.3798 N.ar    1  UNL1       -0.1220
     21 N         139.1044  139.4093  166.6322 N.ar    1  UNL1       -0.1250
     22 C         139.6470  140.8047  166.7240 C.ar    1  UNL1        0.2029
     23 N         139.1625  141.5701  165.5284 N.ar    1  UNL1       -0.2860
     24 C         139.4666  143.0057  165.2180 C.3     1  UNL1        0.1341
     25 C         140.5207  141.3407  167.8191 C.ar    1  UNL1        0.1964
     26 O         141.8219  142.0638  167.6347 O.2     1  UNL1       -0.4283
     27 C         142.3520  142.4177  168.9925 C.ar    1  UNL1        0.2849
     28 N         141.3785  141.9133  170.0162 N.ar    1  UNL1       -0.2085
     29 C         140.2467  141.2477  169.2909 C.ar    1  UNL1        0.1001
     30 C         139.0508  140.6023  169.9260 C.3     1  UNL1        0.0556
@<TRIPOS>BOND
     1    14    15    1
     2    15     8    1
     3     8     9   ar
     4     9    10   ar
     5    10    11   ar
     6    11    12   ar
     7    12     2    1
     8     2     3    1
     9     3     4    1
    10     4     5    1
    11     5     6    1
    12     6     1    1
    13     1    16    1
    14    16    17    1
    15    17    18    1
    16    18    19    1
    17    19    20   ar
    18    20    21   ar
    19    21    22   ar
    20    22    25    1
    21    25    26   ar
    22    26    27   ar
    23    27    28   ar
    24    28    29   ar
    25    29    30    1
    26    22    23   ar
    27    23    24    1
    28     6     7    1
    29    12    13   ar
    30    13     8   ar
    31     4     2    1
    32    23    19   ar
    33     7     2    1
    34    29    25   ar
@<TRIPOS>MOLECULE
*****
 30 34 0 0 0
SMALL
GASTEIGER

@<TRIPOS>ATOM
      1 C         143.7963  143.9971  163.8697 C.3     1  UNL1        0.0730
      2 C         140.1449  143.2723  164.9684 C.3     1  UNL1        0.0351
      3 C         138.8080  143.9526  164.9649 C.3     1  UNL1        0.0072
      4 C         140.0086  144.6555  164.4042 C.3     1  UNL1        0.0214
      5 C         141.3598  145.0953  163.9239 C.3     1  UNL1        0.0724
      6 N         142.3312  143.9840  164.1914 N.3     1  UNL1       -0.2724
      7 C         141.5803  142.8574  164.8369 C.3     1  UNL1        0.0761
      8 C         139.6980  140.3589  167.6259 C.ar    1  UNL1        0.1384
      9 C         138.7306  139.4658  166.9074 C.ar    1  UNL1        0.0369
     10 C         138.2345  139.8415  165.5426 C.ar    1  UNL1        0.0028
     11 C         138.7059  141.1103  164.8963 C.ar    1  UNL1       -0.0040
     12 C         139.6734  142.0034  165.6148 C.ar    1  UNL1       -0.0184
     13 C         140.1694  141.6277  166.9796 C.ar    1  UNL1        0.0327
     14 C         139.7920  140.7967  170.1851 C.3     1  UNL1        0.2525
     15 O         140.1941  139.9832  168.9908 O.3     1  UNL1       -0.4714
     16 C         144.7351  143.0921  164.6111 C.3     1  UNL1        0.0294
     17 C         145.6160  142.1429  163.8543 C.3     1  UNL1        0.0666
     18 S         145.2562  140.6889  163.7728 S.3     1  UNL1       -0.0756
     19 C         144.0889  140.2508  162.9389 C.ar    1  UNL1        0.1933
     20 N         144.0288  140.2451  161.4401 N.ar    1  UNL1       -0.1220
     21 N         142.6796  139.7322  161.0321 N.ar    1  UNL1       -0.1250
     22 C         141.9058  139.4208  162.2788 C.ar    1  UNL1        0.2029
     23 N         142.7768  139.7413  163.4573 N.ar    1  UNL1       -0.2860
     24 C         142.4015  139.5805  164.9006 C.3     1  UNL1        0.1341
     25 C         140.5066  138.8833  162.3369 C.ar    1  UNL1        0.1964
     26 O         139.3064  139.4738  161.6581 O.2     1  UNL1       -0.4283
     27 C         138.1200  138.6164  161.9857 C.ar    1  UNL1        0.2849
     28 N         138.5869  137.4959  162.8669 N.ar    1  UNL1       -0.2085
     29 C         140.0620  137.6609  163.0839 C.ar    1  UNL1        0.1001
     30 C         140.9385  136.7614  163.9040 C.3     1  UNL1        0.0556
@<TRIPOS>BOND
     1    14    15    1
     2    15     8    1
     3     8     9   ar
     4     9    10   ar
     5    10    11   ar
     6    11    12   ar
     7    12     2    1
     8     2     3    1
     9     3     4    1
    10     4     5    1
    11     5     6    1
    12     6     1    1
    13     1    16    1
    14    16    17    1
    15    17    18    1
    16    18    19    1
    17    19    20   ar
    18    20    21   ar
    19    21    22   ar
    20    22    25    1
    21    25    26   ar
    22    26    27   ar
    23    27    28   ar
    24    28    29   ar
    25    29    30    1
    26    22    23   ar
    27    23    24    1
    28     6     7    1
    29    12    13   ar
    30    13     8   ar
    31     4     2    1
    32    23    19   ar
    33     7     2    1
    34    29    25   ar
@<TRIPOS>MOLECULE
*****
 30 34 0 0 0
SMALL
GASTEIGER

@<TRIPOS>ATOM
      1 C         142.5541  143.5931  160.2360 C.3     1  UNL1        0.0730
      2 C         143.8202  141.2635  163.0707 C.3     1  UNL1        0.0351
      3 C         145.0140  141.1217  163.9678 C.3     1  UNL1        0.0072
      4 C         144.9565  142.2372  162.9665 C.3     1  UNL1        0.0214
      5 C         144.6206  143.2283  161.8919 C.3     1  UNL1        0.0724
      6 N         143.2766  142.8673  161.3321 N.3     1  UNL1       -0.2724
      7 C         142.7820  141.6530  162.0606 C.3     1  UNL1        0.0761
      8 C         141.4235  138.1058  163.2564 C.ar    1  UNL1        0.1384
      9 C         141.5875  137.7096  164.6938 C.ar    1  UNL1        0.0369
     10 C         142.4958  138.4980  165.5901 C.ar    1  UNL1        0.0028
     11 C         143.2400  139.6826  165.0492 C.ar    1  UNL1       -0.0040
     12 C         143.0760  140.0788  163.6118 C.ar    1  UNL1       -0.0184
     13 C         142.1677  139.2904  162.7154 C.ar    1  UNL1        0.0327
     14 C         139.2694  137.9483  161.8124 C.3     1  UNL1        0.2525
     15 O         140.5152  137.3174  162.3601 O.3     1  UNL1       -0.4714
     16 C         141.1051  143.9456  160.3981 C.3     1  UNL1        0.0294
     17 C         140.6861  145.3843  160.4641 C.3     1  UNL1        0.0666
     18 S         139.8954  145.8820  161.6376 S.3     1  UNL1       -0.0756
     19 C         139.3736  144.9122  162.6561 C.ar    1  UNL1        0.1933
     20 N         137.9683  144.3947  162.7417 N.ar    1  UNL1       -0.1220
     21 N         137.8916  143.4523  163.9062 N.ar    1  UNL1       -0.1250
     22 C         139.2494  143.3875  164.5403 C.ar    1  UNL1        0.2029
     23 N         140.1654  144.2898  163.7676 N.ar    1  UNL1       -0.2860
     24 C         141.6180  144.5277  164.0560 C.3     1  UNL1        0.1341
     25 C         139.6254  142.5648  165.7369 C.ar    1  UNL1        0.1964
     26 O         140.2915  143.0720  166.9815 O.2     1  UNL1       -0.4283
     27 C         140.4790  141.9112  167.9128 C.ar    1  UNL1        0.2849
     28 N         139.9289  140.6865  167.2438 N.ar    1  UNL1       -0.2085
     29 C         139.4013  141.0906  165.8990 C.ar    1  UNL1        0.1001
     30 C         138.7619  140.1801  164.8929 C.3     1  UNL1        0.0556
@<TRIPOS>BOND
     1    14    15    1
     2    15     8    1
     3     8     9   ar
     4     9    10   ar
     5    10    11   ar
     6    11    12   ar
     7    12     2    1
     8     2     3    1
     9     3     4    1
    10     4     5    1
    11     5     6    1
    12     6     1    1
    13     1    16    1
    14    16    17    1
    15    17    18    1
    16    18    19    1
    17    19    20   ar
    18    20    21   ar
    19    21    22   ar
    20    22    25    1
    21    25    26   ar
    22    26    27   ar
    23    27    28   ar
    24    28    29   ar
    25    29    30    1
    26    22    23   ar
    27    23    24    1
    28     6     7    1
    29    12    13   ar
    30    13     8   ar
    31     4     2    1
    32    23    19   ar
    33     7     2    1
    34    29    25   ar
@<TRIPOS>MOLECULE
*****
 30 34 0 0 0
SMALL
GASTEIGER

@<TRIPOS>ATOM
      1 C         137.3930  142.0640  163.6091 C.3     1  UNL1        0.0730
      2 C         139.6867  139.2797  165.0416 C.3     1  UNL1        0.0351
      3 C         140.0664  137.8609  164.7368 C.3     1  UNL1        0.0072
      4 C         139.0861  138.5803  163.8583 C.3     1  UNL1        0.0214
      5 C         138.1539  139.5381  163.1777 C.3     1  UNL1        0.0724
      6 N         138.1782  140.8295  163.9403 N.3     1  UNL1       -0.2724
      7 C         139.1255  140.6698  165.0922 C.3     1  UNL1        0.0761
      8 C         140.8398  140.0651  168.7569 C.ar    1  UNL1        0.1384
      9 C         142.2906  139.6903  168.6886 C.ar    1  UNL1        0.0369
     10 C         142.8734  139.1785  167.4047 C.ar    1  UNL1        0.0028
     11 C         142.0055  139.0417  166.1890 C.ar    1  UNL1       -0.0040
     12 C         140.5547  139.4165  166.2573 C.ar    1  UNL1       -0.0184
     13 C         139.9719  139.9283  167.5412 C.ar    1  UNL1        0.0327
     14 C         139.7062  141.9702  170.1116 C.3     1  UNL1        0.2525
     15 O         140.2570  140.5768  170.0408 O.3     1  UNL1       -0.4714
     16 C         137.8051  143.3898  164.1770 C.3     1  UNL1        0.0294
     17 C         138.2559  144.4899  163.2624 C.3     1  UNL1        0.0666
     18 S         139.7126  144.6496  162.9424 S.3     1  UNL1       -0.0756
     19 C         140.6769  143.5474  163.2667 C.ar    1  UNL1        0.1933
     20 N         141.5452  143.4662  164.4872 N.ar    1  UNL1       -0.1220
     21 N         142.3472  142.2014  164.4022 N.ar    1  UNL1       -0.1250
     22 C         141.9746  141.5010  163.1292 C.ar    1  UNL1        0.2029
     23 N         140.9424  142.3328  162.4274 N.ar    1  UNL1       -0.2860
     24 C         140.2901  142.0072  161.1165 C.3     1  UNL1        0.1341
     25 C         142.5358  140.1975  162.6433 C.ar    1  UNL1        0.1964
     26 O         141.7928  139.1541  161.8628 O.2     1  UNL1       -0.4283
     27 C         142.7362  138.0203  161.5897 C.ar    1  UNL1        0.2849
     28 N         144.0623  138.3631  162.2014 N.ar    1  UNL1       -0.2085
     29 C         143.9383  139.7087  162.8525 C.ar    1  UNL1        0.1001
     30 C         145.0260  140.4375  163.5844 C.3     1  UNL1        0.0556
@<TRIPOS>BOND
     1    14    15    1
     2    15     8    1
     3     8     9   ar
     4     9    10   ar
     5    10    11   ar
     6    11    12   ar
     7    12     2    1
     8     2     3    1
     9     3     4    1
    10     4     5    1
    11     5     6    1
    12     6     1    1
    13     1    16    1
    14    16    17    1
    15    17    18    1
    16    18    19    1
    17    19    20   ar
    18    20    21   ar
    19    21    22   ar
    20    22    25    1
    21    25    26   ar
    22    26    27   ar
    23    27    28   ar
    24    28    29   ar
    25    29    30    1
    26    22    23   ar
    27    23    24    1
    28     6     7    1
    29    12    13   ar
    30    13     8   ar
    31     4     2    1
    32    23    19   ar
    33     7     2    1
    34    29    25   ar
