@<TRIPOS>MOLECULE
*****
 42 47 0 0 0
SMALL
GASTEIGER

@<TRIPOS>ATOM
      1 C         141.3180  141.6300  164.7679 C.ar    1  UNL1        0.0929
      2 C         140.8183  141.3698  166.1581 C.ar    1  UNL1        0.1497
      3 O         139.6380  140.4491  166.0615 O.2     1  UNL1       -0.4533
      4 C         139.4083  140.1404  164.6117 C.ar    1  UNL1        0.1476
      5 C         138.3878  139.2890  163.9163 C.ar    1  UNL1        0.0376
      6 C         138.4056  139.1674  162.4214 C.ar    1  UNL1        0.0054
      7 C         139.4439  139.8973  161.6219 C.ar    1  UNL1        0.0274
      8 C         140.4644  140.7487  162.3173 C.ar    1  UNL1        0.1432
      9 F         141.5026  141.4786  161.5177 F       1  UNL1       -0.2041
     10 C         140.4466  140.8702  163.8122 C.ar    1  UNL1        0.0693
     11 C         141.3972  141.9315  167.4227 C.ar    1  UNL1        0.0349
     12 C         142.8181  141.6289  167.7962 C.ar    1  UNL1        0.0053
     13 C         143.3970  142.1907  169.0609 C.ar    1  UNL1        0.0297
     14 C         142.5551  143.0550  169.9519 C.ar    1  UNL1        0.1401
     15 F         143.1340  143.6168  171.2165 F       1  UNL1       -0.2042
     16 C         141.1343  143.3576  169.5784 C.ar    1  UNL1        0.0297
     17 C         140.5553  142.7959  168.3137 C.ar    1  UNL1        0.0053
     18 C         139.4616  139.7757  160.1269 C.ar    1  UNL1       -0.0016
     19 C         138.4124  140.4648  159.3058 C.ar    1  UNL1        0.0043
     20 C         138.4301  140.3432  157.8108 C.ar    1  UNL1        0.0533
     21 C         139.4971  139.5325  157.1369 C.ar    1  UNL1        0.0042
     22 C         140.5464  138.8433  157.9580 C.ar    1  UNL1       -0.0041
     23 C         140.5286  138.9649  159.4530 C.ar    1  UNL1       -0.0218
     24 C         141.5779  138.2758  160.2741 C.3     1  UNL1        0.0310
     25 C         137.3809  141.0324  156.9898 C.2     1  UNL1        0.2461
     26 O         137.1778  142.5127  157.1217 O.2     1  UNL1       -0.2701
     27 N         136.5347  140.2412  156.0369 N.am    1  UNL1       -0.2976
     28 H         136.6680  139.2697  155.9503 H       1  UNL1        0.1500
     29 C         135.4855  140.9304  155.2158 C.3     1  UNL1        0.1092
     30 C         134.8641  141.7658  154.1361 C.3     1  UNL1        0.0274
     31 C         136.3530  141.5910  154.1858 C.3     1  UNL1        0.0274
     32 C         134.2536  140.5092  155.9607 C.ar    1  UNL1        0.1549
     33 N         134.3639  139.5593  157.1164 N.ar    1  UNL1       -0.2276
     34 C         133.1319  139.1381  157.8613 C.ar    1  UNL1        0.1019
     35 C         131.7896  139.6668  157.4505 C.ar    1  UNL1        0.0413
     36 C         131.6793  140.6166  156.2949 C.ar    1  UNL1        0.1019
     37 N         132.9113  141.0378  155.5500 N.ar    1  UNL1       -0.2276
     38 C         143.4461  144.8303  163.7778 C.3     1  UNL1        0.1109
     39 N         142.2797  143.9625  164.1474 N.am    1  UNL1       -0.2991
     40 C         142.4844  142.4978  164.3982 C.2     1  UNL1        0.2490
     41 O         143.8553  141.9009  164.2794 O.2     1  UNL1       -0.2700
     42 H         141.3799  144.3543  164.2255 H       1  UNL1        0.1498
@<TRIPOS>BOND
     1    38    39    1
     2    39    40   am
     3    40    41    2
     4    40     1    1
     5     1     2   ar
     6     2    11    1
     7    11    12   ar
     8    12    13   ar
     9    13    14   ar
    10    14    15    1
    11    14    16   ar
    12    16    17   ar
    13     2     3   ar
    14     3     4   ar
    15     4     5   ar
    16     5     6   ar
    17     6     7   ar
    18     7    18    1
    19    18    19   ar
    20    19    20   ar
    21    20    25    1
    22    25    26    2
    23    25    27   am
    24    27    29    1
    25    29    32    1
    26    32    33   ar
    27    33    34   ar
    28    34    35   ar
    29    35    36   ar
    30    36    37   ar
    31    29    30    1
    32    30    31    1
    33    20    21   ar
    34    21    22   ar
    35    22    23   ar
    36    23    24    1
    37     7     8   ar
    38     8     9    1
    39     8    10   ar
    40    10     1   ar
    41    17    11   ar
    42    10     4   ar
    43    23    18   ar
    44    31    29    1
    45    37    32   ar
    46    39    42    1
    47    27    28    1
@<TRIPOS>MOLECULE
*****
 42 47 0 0 0
SMALL
GASTEIGER

@<TRIPOS>ATOM
      1 C         141.4090  141.5389  164.6583 C.ar    1  UNL1        0.0929
      2 C         140.8519  141.6541  166.0463 C.ar    1  UNL1        0.1497
      3 O         139.4851  142.2642  165.9478 O.2     1  UNL1       -0.4533
      4 C         139.1976  142.5261  164.4991 C.ar    1  UNL1        0.1476
      5 C         138.0066  143.1149  163.8027 C.ar    1  UNL1        0.0376
      6 C         138.0048  143.2553  162.3094 C.ar    1  UNL1        0.0054
      7 C         139.1938  142.8070  161.5124 C.ar    1  UNL1        0.0274
      8 C         140.3848  142.2183  162.2088 C.ar    1  UNL1        0.1432
      9 F         141.5738  141.7700  161.4118 F       1  UNL1       -0.2041
     10 C         140.3866  142.0778  163.7022 C.ar    1  UNL1        0.0693
     11 C         141.5406  141.2331  167.3106 C.ar    1  UNL1        0.0349
     12 C         142.5594  142.1327  167.9450 C.ar    1  UNL1        0.0053
     13 C         143.2481  141.7117  169.2093 C.ar    1  UNL1        0.0297
     14 C         142.9179  140.3911  169.8392 C.ar    1  UNL1        0.1401
     15 F         143.6066  139.9701  171.1035 F       1  UNL1       -0.2042
     16 C         141.8990  139.4914  169.2048 C.ar    1  UNL1        0.0297
     17 C         141.2104  139.9125  167.9405 C.ar    1  UNL1        0.0053
     18 C         139.1919  142.9475  160.0189 C.ar    1  UNL1       -0.0016
     19 C         138.5119  141.9151  159.1694 C.ar    1  UNL1        0.0043
     20 C         138.5100  142.0556  157.6759 C.ar    1  UNL1        0.0533
     21 C         139.1881  143.2284  157.0321 C.ar    1  UNL1        0.0042
     22 C         139.8682  144.2608  157.8817 C.ar    1  UNL1       -0.0041
     23 C         139.8701  144.1203  159.3751 C.ar    1  UNL1       -0.0218
     24 C         140.5502  145.1527  160.2247 C.3     1  UNL1        0.0310
     25 C         137.8299  141.0233  156.8264 C.2     1  UNL1        0.2461
     26 O         138.1415  139.5689  157.0201 O.2     1  UNL1       -0.2701
     27 N         136.8382  141.4453  155.7831 N.am    1  UNL1       -0.2976
     28 H         136.6337  142.3999  155.6560 H       1  UNL1        0.1500
     29 C         136.1581  140.4130  154.9336 C.3     1  UNL1        0.1092
     30 C         135.9513  139.3794  153.8664 C.3     1  UNL1        0.0274
     31 C         137.2848  140.0509  154.0119 C.3     1  UNL1        0.0274
     32 C         134.7953  140.4166  155.5602 C.ar    1  UNL1        0.1549
     33 N         133.6851  141.2093  154.9365 N.ar    1  UNL1       -0.2276
     34 C         132.3223  141.2128  155.5632 C.ar    1  UNL1        0.1019
     35 C         132.0697  140.4237  156.8136 C.ar    1  UNL1        0.0413
     36 C         133.1799  139.6311  157.4373 C.ar    1  UNL1        0.1019
     37 N         134.5427  139.6275  156.8107 N.ar    1  UNL1       -0.2276
     38 C         145.1511  141.3274  163.3535 C.3     1  UNL1        0.1109
     39 N         143.8074  141.8839  163.7208 N.am    1  UNL1       -0.2991
     40 C         142.7527  140.9824  164.2910 C.2     1  UNL1        0.2490
     41 O         143.0418  139.5247  164.4939 O.2     1  UNL1       -0.2700
     42 H         143.6177  142.8407  163.5876 H       1  UNL1        0.1498
@<TRIPOS>BOND
     1    38    39    1
     2    39    40   am
     3    40    41    2
     4    40     1    1
     5     1     2   ar
     6     2    11    1
     7    11    12   ar
     8    12    13   ar
     9    13    14   ar
    10    14    15    1
    11    14    16   ar
    12    16    17   ar
    13     2     3   ar
    14     3     4   ar
    15     4     5   ar
    16     5     6   ar
    17     6     7   ar
    18     7    18    1
    19    18    19   ar
    20    19    20   ar
    21    20    25    1
    22    25    26    2
    23    25    27   am
    24    27    29    1
    25    29    32    1
    26    32    33   ar
    27    33    34   ar
    28    34    35   ar
    29    35    36   ar
    30    36    37   ar
    31    29    30    1
    32    30    31    1
    33    20    21   ar
    34    21    22   ar
    35    22    23   ar
    36    23    24    1
    37     7     8   ar
    38     8     9    1
    39     8    10   ar
    40    10     1   ar
    41    17    11   ar
    42    10     4   ar
    43    23    18   ar
    44    31    29    1
    45    37    32   ar
    46    39    42    1
    47    27    28    1
@<TRIPOS>MOLECULE
*****
 42 47 0 0 0
SMALL
GASTEIGER

@<TRIPOS>ATOM
      1 C         141.4401  141.5730  164.9884 C.ar    1  UNL1        0.0929
      2 C         141.1209  141.9943  166.3921 C.ar    1  UNL1        0.1497
      3 O         140.0762  143.0687  166.3273 O.2     1  UNL1       -0.4533
      4 C         139.7497  143.3114  164.8836 C.ar    1  UNL1        0.1476
      5 C         138.7938  144.2547  164.2155 C.ar    1  UNL1        0.0376
      6 C         138.6808  144.2736  162.7199 C.ar    1  UNL1        0.0054
      7 C         139.5238  143.3491  161.8924 C.ar    1  UNL1        0.0274
      8 C         140.4797  142.4058  162.5604 C.ar    1  UNL1        0.1432
      9 F         141.3227  141.4814  161.7329 F       1  UNL1       -0.2041
     10 C         140.5927  142.3870  164.0560 C.ar    1  UNL1        0.0693
     11 C         141.7381  141.4387  167.6413 C.ar    1  UNL1        0.0349
     12 C         142.7769  142.2292  168.3802 C.ar    1  UNL1        0.0053
     13 C         143.3940  141.6736  169.6294 C.ar    1  UNL1        0.0297
     14 C         142.9724  140.3277  170.1397 C.ar    1  UNL1        0.1401
     15 F         143.5895  139.7721  171.3889 F       1  UNL1       -0.2042
     16 C         141.9335  139.5372  169.4009 C.ar    1  UNL1        0.0297
     17 C         141.3164  140.0928  168.1517 C.ar    1  UNL1        0.0053
     18 C         139.4108  143.3681  160.3967 C.ar    1  UNL1       -0.0016
     19 C         138.5564  142.3536  159.6962 C.ar    1  UNL1        0.0043
     20 C         138.4434  142.3725  158.2006 C.ar    1  UNL1        0.0533
     21 C         139.1848  143.4060  157.4054 C.ar    1  UNL1        0.0042
     22 C         140.0393  144.4205  158.1060 C.ar    1  UNL1       -0.0041
     23 C         140.1522  144.4015  159.6016 C.ar    1  UNL1       -0.0218
     24 C         141.0067  145.4161  160.3022 C.3     1  UNL1        0.0310
     25 C         137.5890  141.3580  157.5001 C.2     1  UNL1        0.2461
     26 O         137.1158  140.1396  158.2359 O.2     1  UNL1       -0.2701
     27 N         137.2078  141.5619  156.0637 N.am    1  UNL1       -0.2976
     28 H         137.5183  142.3616  155.5808 H       1  UNL1        0.1500
     29 C         136.3534  140.5474  155.3633 C.3     1  UNL1        0.1092
     30 C         135.1288  139.8376  154.8666 C.3     1  UNL1        0.0274
     31 C         134.9909  141.0725  155.7068 C.3     1  UNL1        0.0274
     32 C         137.4190  139.6699  154.7765 C.ar    1  UNL1        0.1549
     33 N         138.6111  140.2847  154.1048 N.ar    1  UNL1       -0.2276
     34 C         139.6767  139.4071  153.5180 C.ar    1  UNL1        0.1019
     35 C         139.5503  137.9149  153.6028 C.ar    1  UNL1        0.0413
     36 C         138.3584  137.3002  154.2744 C.ar    1  UNL1        0.1019
     37 N         137.2926  138.1777  154.8613 N.ar    1  UNL1       -0.2276
     38 C         144.8948  139.7330  164.3324 C.3     1  UNL1        0.1109
     39 N         143.9024  140.7838  164.7335 N.am    1  UNL1       -0.2991
     40 C         142.4326  140.5221  164.5873 C.2     1  UNL1        0.2490
     41 O         141.9553  139.2096  164.0401 O.2     1  UNL1       -0.2700
     42 H         144.2157  141.6453  165.0927 H       1  UNL1        0.1498
@<TRIPOS>BOND
     1    38    39    1
     2    39    40   am
     3    40    41    2
     4    40     1    1
     5     1     2   ar
     6     2    11    1
     7    11    12   ar
     8    12    13   ar
     9    13    14   ar
    10    14    15    1
    11    14    16   ar
    12    16    17   ar
    13     2     3   ar
    14     3     4   ar
    15     4     5   ar
    16     5     6   ar
    17     6     7   ar
    18     7    18    1
    19    18    19   ar
    20    19    20   ar
    21    20    25    1
    22    25    26    2
    23    25    27   am
    24    27    29    1
    25    29    32    1
    26    32    33   ar
    27    33    34   ar
    28    34    35   ar
    29    35    36   ar
    30    36    37   ar
    31    29    30    1
    32    30    31    1
    33    20    21   ar
    34    21    22   ar
    35    22    23   ar
    36    23    24    1
    37     7     8   ar
    38     8     9    1
    39     8    10   ar
    40    10     1   ar
    41    17    11   ar
    42    10     4   ar
    43    23    18   ar
    44    31    29    1
    45    37    32   ar
    46    39    42    1
    47    27    28    1
@<TRIPOS>MOLECULE
*****
 42 47 0 0 0
SMALL
GASTEIGER

@<TRIPOS>ATOM
      1 C         140.7692  141.2387  164.4770 C.ar    1  UNL1        0.0929
      2 C         141.4838  142.3278  165.2207 C.ar    1  UNL1        0.1497
      3 O         142.0048  143.3111  164.2148 O.2     1  UNL1       -0.4533
      4 C         141.6123  142.8296  162.8495 C.ar    1  UNL1        0.1476
      5 C         141.8515  143.3919  161.4797 C.ar    1  UNL1        0.0376
      6 C         141.3271  142.6734  160.2719 C.ar    1  UNL1        0.0054
      7 C         140.5634  141.3926  160.4340 C.ar    1  UNL1        0.0274
      8 C         140.3242  140.8302  161.8038 C.ar    1  UNL1        0.1432
      9 F         139.5605  139.5494  161.9659 F       1  UNL1       -0.2041
     10 C         140.8486  141.5487  163.0116 C.ar    1  UNL1        0.0693
     11 C         141.6485  142.4180  166.7089 C.ar    1  UNL1        0.0349
     12 C         142.9688  142.0866  167.3388 C.ar    1  UNL1        0.0053
     13 C         143.1334  142.1767  168.8270 C.ar    1  UNL1        0.0297
     14 C         141.9778  142.5982  169.6853 C.ar    1  UNL1        0.1401
     15 F         142.1424  142.6884  171.1735 F       1  UNL1       -0.2042
     16 C         140.6574  142.9296  169.0554 C.ar    1  UNL1        0.0297
     17 C         140.4928  142.8395  167.5672 C.ar    1  UNL1        0.0053
     18 C         140.0390  140.6741  159.2261 C.ar    1  UNL1       -0.0016
     19 C         138.8781  141.2392  158.4626 C.ar    1  UNL1        0.0043
     20 C         138.3537  140.5207  157.2548 C.ar    1  UNL1        0.0533
     21 C         138.9902  139.2372  156.8105 C.ar    1  UNL1        0.0042
     22 C         140.1512  138.6721  157.5741 C.ar    1  UNL1       -0.0041
     23 C         140.6755  139.3906  158.7819 C.ar    1  UNL1       -0.0218
     24 C         141.8365  138.8255  159.5454 C.3     1  UNL1        0.0310
     25 C         137.1928  141.0858  156.4913 C.2     1  UNL1        0.2461
     26 O         136.9296  142.5623  156.5109 O.2     1  UNL1       -0.2701
     27 N         136.2951  140.1742  155.7081 N.am    1  UNL1       -0.2976
     28 H         136.4679  139.2051  155.6953 H       1  UNL1        0.1500
     29 C         135.1342  140.7393  154.9446 C.3     1  UNL1        0.1092
     30 C         134.3651  141.4478  153.8692 C.3     1  UNL1        0.0274
     31 C         135.8593  141.3486  153.7814 C.3     1  UNL1        0.0274
     32 C         134.0060  140.3262  155.8426 C.ar    1  UNL1        0.1549
     33 N         134.2740  139.4459  157.0272 N.ar    1  UNL1       -0.2276
     34 C         133.1457  139.0329  157.9252 C.ar    1  UNL1        0.1019
     35 C         131.7494  139.5001  157.6386 C.ar    1  UNL1        0.0413
     36 C         131.4815  140.3804  156.4541 C.ar    1  UNL1        0.1019
     37 N         132.6097  140.7935  155.5560 N.ar    1  UNL1       -0.2276
     38 C         138.0564  139.0014  166.3171 C.3     1  UNL1        0.1109
     39 N         138.7318  140.1917  165.7031 N.am    1  UNL1       -0.2991
     40 C         140.0938  140.0483  165.0910 C.2     1  UNL1        0.2490
     41 O         140.7802  138.7147  165.0930 O.2     1  UNL1       -0.2700
     42 H         138.2812  141.0671  165.7018 H       1  UNL1        0.1498
@<TRIPOS>BOND
     1    38    39    1
     2    39    40   am
     3    40    41    2
     4    40     1    1
     5     1     2   ar
     6     2    11    1
     7    11    12   ar
     8    12    13   ar
     9    13    14   ar
    10    14    15    1
    11    14    16   ar
    12    16    17   ar
    13     2     3   ar
    14     3     4   ar
    15     4     5   ar
    16     5     6   ar
    17     6     7   ar
    18     7    18    1
    19    18    19   ar
    20    19    20   ar
    21    20    25    1
    22    25    26    2
    23    25    27   am
    24    27    29    1
    25    29    32    1
    26    32    33   ar
    27    33    34   ar
    28    34    35   ar
    29    35    36   ar
    30    36    37   ar
    31    29    30    1
    32    30    31    1
    33    20    21   ar
    34    21    22   ar
    35    22    23   ar
    36    23    24    1
    37     7     8   ar
    38     8     9    1
    39     8    10   ar
    40    10     1   ar
    41    17    11   ar
    42    10     4   ar
    43    23    18   ar
    44    31    29    1
    45    37    32   ar
    46    39    42    1
    47    27    28    1
@<TRIPOS>MOLECULE
*****
 42 47 0 0 0
SMALL
GASTEIGER

@<TRIPOS>ATOM
      1 C         140.9516  141.8164  165.3430 C.ar    1  UNL1        0.0929
      2 C         141.6779  141.8928  166.6532 C.ar    1  UNL1        0.1497
      3 O         142.9020  142.7370  166.4561 O.2     1  UNL1       -0.4533
      4 C         142.9322  143.1824  165.0240 C.ar    1  UNL1        0.1476
      5 C         143.9017  144.0326  164.2576 C.ar    1  UNL1        0.0376
      6 C         143.6657  144.3137  162.8032 C.ar    1  UNL1        0.0054
      7 C         142.4603  143.7447  162.1153 C.ar    1  UNL1        0.0274
      8 C         141.4909  142.8946  162.8817 C.ar    1  UNL1        0.1432
      9 F         140.2855  142.3256  162.1938 F       1  UNL1       -0.2041
     10 C         141.7269  142.6134  164.3361 C.ar    1  UNL1        0.0693
     11 C         141.2544  141.2396  167.9354 C.ar    1  UNL1        0.0349
     12 C         142.0784  140.1310  168.5202 C.ar    1  UNL1        0.0053
     13 C         141.6549  139.4778  169.8024 C.ar    1  UNL1        0.0297
     14 C         140.4075  139.9333  170.4998 C.ar    1  UNL1        0.1401
     15 F         139.9840  139.2801  171.7820 F       1  UNL1       -0.2042
     16 C         139.5836  141.0419  169.9150 C.ar    1  UNL1        0.0297
     17 C         140.0070  141.6951  168.6328 C.ar    1  UNL1        0.0053
     18 C         142.2243  144.0259  160.6608 C.ar    1  UNL1       -0.0016
     19 C         143.0248  143.3039  159.6179 C.ar    1  UNL1        0.0043
     20 C         142.7889  143.5851  158.1634 C.ar    1  UNL1        0.0533
     21 C         141.7524  144.5883  157.7520 C.ar    1  UNL1        0.0042
     22 C         140.9519  145.3104  158.7951 C.ar    1  UNL1       -0.0041
     23 C         141.1879  145.0292  160.2495 C.ar    1  UNL1       -0.0218
     24 C         140.3874  145.7512  161.2925 C.3     1  UNL1        0.0310
     25 C         143.5894  142.8630  157.1205 C.2     1  UNL1        0.2461
     26 O         143.2653  143.0449  155.6673 O.2     1  UNL1       -0.2701
     27 N         144.7139  141.9591  157.5307 N.am    1  UNL1       -0.2976
     28 H         144.9266  141.8397  158.4845 H       1  UNL1        0.1500
     29 C         145.5144  141.2370  156.4877 C.3     1  UNL1        0.1092
     30 C         146.5760  140.9654  155.4635 C.3     1  UNL1        0.0274
     31 C         146.5443  142.2832  156.1794 C.3     1  UNL1        0.0274
     32 C         144.7626  139.9402  156.4339 C.ar    1  UNL1        0.1549
     33 N         145.0610  138.9446  155.3523 N.ar    1  UNL1       -0.2276
     34 C         144.3092  137.6478  155.2985 C.ar    1  UNL1        0.1019
     35 C         143.2590  137.3464  156.3262 C.ar    1  UNL1        0.0413
     36 C         142.9606  138.3419  157.4078 C.ar    1  UNL1        0.1019
     37 N         143.7124  139.6388  157.4616 N.ar    1  UNL1       -0.2276
     38 C         138.3993  138.8313  164.7725 C.3     1  UNL1        0.1109
     39 N         139.6766  139.5743  165.0306 N.am    1  UNL1       -0.2991
     40 C         139.6744  141.0734  165.0849 C.2     1  UNL1        0.2490
     41 O         138.3950  141.8293  164.8811 O.2     1  UNL1       -0.2700
     42 H         140.5163  139.0781  165.1643 H       1  UNL1        0.1498
@<TRIPOS>BOND
     1    38    39    1
     2    39    40   am
     3    40    41    2
     4    40     1    1
     5     1     2   ar
     6     2    11    1
     7    11    12   ar
     8    12    13   ar
     9    13    14   ar
    10    14    15    1
    11    14    16   ar
    12    16    17   ar
    13     2     3   ar
    14     3     4   ar
    15     4     5   ar
    16     5     6   ar
    17     6     7   ar
    18     7    18    1
    19    18    19   ar
    20    19    20   ar
    21    20    25    1
    22    25    26    2
    23    25    27   am
    24    27    29    1
    25    29    32    1
    26    32    33   ar
    27    33    34   ar
    28    34    35   ar
    29    35    36   ar
    30    36    37   ar
    31    29    30    1
    32    30    31    1
    33    20    21   ar
    34    21    22   ar
    35    22    23   ar
    36    23    24    1
    37     7     8   ar
    38     8     9    1
    39     8    10   ar
    40    10     1   ar
    41    17    11   ar
    42    10     4   ar
    43    23    18   ar
    44    31    29    1
    45    37    32   ar
    46    39    42    1
    47    27    28    1
@<TRIPOS>MOLECULE
*****
 42 47 0 0 0
SMALL
GASTEIGER

@<TRIPOS>ATOM
      1 C         141.1173  140.9315  163.9800 C.ar    1  UNL1        0.0929
      2 C         141.6216  140.5565  165.3420 C.ar    1  UNL1        0.1497
      3 O         142.8430  139.7039  165.1654 O.2     1  UNL1       -0.4533
      4 C         143.0936  139.5520  163.6943 C.ar    1  UNL1        0.1476
      5 C         144.1552  138.8208  162.9273 C.ar    1  UNL1        0.0376
      6 C         144.1502  138.8483  161.4276 C.ar    1  UNL1        0.0054
      7 C         143.0836  139.6070  160.6949 C.ar    1  UNL1        0.0274
      8 C         142.0220  140.3382  161.4620 C.ar    1  UNL1        0.1432
      9 F         140.9554  141.0968  160.7293 F       1  UNL1       -0.2041
     10 C         142.0270  140.3106  162.9617 C.ar    1  UNL1        0.0693
     11 C         141.0115  140.9628  166.6507 C.ar    1  UNL1        0.0349
     12 C         141.2373  142.3455  167.1863 C.ar    1  UNL1        0.0053
     13 C         140.6272  142.7518  168.4950 C.ar    1  UNL1        0.0297
     14 C         139.7915  141.7753  169.2682 C.ar    1  UNL1        0.1401
     15 F         139.1814  142.1815  170.5770 F       1  UNL1       -0.2042
     16 C         139.5657  140.3925  168.7326 C.ar    1  UNL1        0.0297
     17 C         140.1758  139.9862  167.4239 C.ar    1  UNL1        0.0053
     18 C         143.0786  139.6345  159.1951 C.ar    1  UNL1       -0.0016
     19 C         142.5688  138.4526  158.4250 C.ar    1  UNL1        0.0043
     20 C         142.5638  138.4801  156.9252 C.ar    1  UNL1        0.0533
     21 C         143.0687  139.6895  156.1956 C.ar    1  UNL1        0.0042
     22 C         143.5786  140.8714  156.9658 C.ar    1  UNL1       -0.0041
     23 C         143.5835  140.8439  158.4655 C.ar    1  UNL1       -0.0218
     24 C         144.0934  142.0259  159.2357 C.3     1  UNL1        0.0310
     25 C         142.0539  137.2982  156.1551 C.2     1  UNL1        0.2461
     26 O         140.6456  136.8228  156.3563 O.2     1  UNL1       -0.2701
     27 N         142.9525  136.5916  155.1839 N.am    1  UNL1       -0.2976
     28 H         143.8768  136.9035  155.0518 H       1  UNL1        0.1500
     29 C         142.4426  135.4096  154.4138 C.3     1  UNL1        0.1092
     30 C         141.8079  134.6112  153.3139 C.3     1  UNL1        0.0274
     31 C         141.9060  136.1035  153.1969 C.3     1  UNL1        0.0274
     32 C         142.8021  134.3054  155.3631 C.ar    1  UNL1        0.1549
     33 N         142.0941  132.9855  155.2811 N.ar    1  UNL1       -0.2276
     34 C         142.4537  131.8813  156.2305 C.ar    1  UNL1        0.1019
     35 C         143.5213  132.0968  157.2618 C.ar    1  UNL1        0.0413
     36 C         144.2293  133.4166  157.3438 C.ar    1  UNL1        0.1019
     37 N         143.8697  134.5209  156.3945 N.ar    1  UNL1       -0.2276
     38 C         137.3961  141.9771  163.0800 C.3     1  UNL1        0.1109
     39 N         138.5990  141.1300  163.3724 N.am    1  UNL1       -0.2991
     40 C         139.9144  141.7785  163.6876 C.2     1  UNL1        0.2490
     41 O         140.0267  143.2741  163.7102 O.2     1  UNL1       -0.2700
     42 H         138.5252  140.1484  163.3575 H       1  UNL1        0.1498
@<TRIPOS>BOND
     1    38    39    1
     2    39    40   am
     3    40    41    2
     4    40     1    1
     5     1     2   ar
     6     2    11    1
     7    11    12   ar
     8    12    13   ar
     9    13    14   ar
    10    14    15    1
    11    14    16   ar
    12    16    17   ar
    13     2     3   ar
    14     3     4   ar
    15     4     5   ar
    16     5     6   ar
    17     6     7   ar
    18     7    18    1
    19    18    19   ar
    20    19    20   ar
    21    20    25    1
    22    25    26    2
    23    25    27   am
    24    27    29    1
    25    29    32    1
    26    32    33   ar
    27    33    34   ar
    28    34    35   ar
    29    35    36   ar
    30    36    37   ar
    31    29    30    1
    32    30    31    1
    33    20    21   ar
    34    21    22   ar
    35    22    23   ar
    36    23    24    1
    37     7     8   ar
    38     8     9    1
    39     8    10   ar
    40    10     1   ar
    41    17    11   ar
    42    10     4   ar
    43    23    18   ar
    44    31    29    1
    45    37    32   ar
    46    39    42    1
    47    27    28    1
@<TRIPOS>MOLECULE
*****
 42 47 0 0 0
SMALL
GASTEIGER

@<TRIPOS>ATOM
      1 C         141.4872  141.2937  164.8883 C.ar    1  UNL1        0.0929
      2 C         142.0731  140.8518  166.1965 C.ar    1  UNL1        0.1497
      3 O         143.2479  139.9666  165.9027 O.2     1  UNL1       -0.4533
      4 C         143.3881  139.8615  164.4129 C.ar    1  UNL1        0.1476
      5 C         144.3660  139.1250  163.5463 C.ar    1  UNL1        0.0376
      6 C         144.2556  139.2086  162.0527 C.ar    1  UNL1        0.0054
      7 C         143.1674  140.0288  161.4258 C.ar    1  UNL1        0.0274
      8 C         142.1895  140.7654  162.2925 C.ar    1  UNL1        0.1432
      9 F         141.1013  141.5856  161.6655 F       1  UNL1       -0.2041
     10 C         142.2998  140.6818  163.7860 C.ar    1  UNL1        0.0693
     11 C         141.5722  141.2288  167.5592 C.ar    1  UNL1        0.0349
     12 C         140.5843  140.3481  168.2652 C.ar    1  UNL1        0.0053
     13 C         140.0834  140.7251  169.6280 C.ar    1  UNL1        0.0297
     14 C         140.5704  141.9827  170.2846 C.ar    1  UNL1        0.1401
     15 F         140.0695  142.3597  171.6473 F       1  UNL1       -0.2042
     16 C         141.5583  142.8633  169.5786 C.ar    1  UNL1        0.0297
     17 C         142.0592  142.4863  168.2159 C.ar    1  UNL1        0.0053
     18 C         143.0571  140.1124  159.9321 C.ar    1  UNL1       -0.0016
     19 C         142.3671  139.0211  159.1688 C.ar    1  UNL1        0.0043
     20 C         142.2568  139.1047  157.6751 C.ar    1  UNL1        0.0533
     21 C         142.8366  140.2797  156.9449 C.ar    1  UNL1        0.0042
     22 C         143.5266  141.3711  157.7084 C.ar    1  UNL1       -0.0041
     23 C         143.6368  141.2875  159.2019 C.ar    1  UNL1       -0.0218
     24 C         144.3269  142.3789  159.9654 C.3     1  UNL1        0.0310
     25 C         141.5669  138.0133  156.9118 C.2     1  UNL1        0.2461
     26 O         140.1460  137.6560  157.2333 O.2     1  UNL1       -0.2701
     27 N         142.2978  137.2792  155.8269 N.am    1  UNL1       -0.2976
     28 H         143.2303  137.5137  155.6159 H       1  UNL1        0.1500
     29 C         141.6078  136.1878  155.0636 C.3     1  UNL1        0.1092
     30 C         140.7211  135.5140  154.0587 C.3     1  UNL1        0.0274
     31 C         140.8018  137.0112  154.1031 C.3     1  UNL1        0.0274
     32 C         142.1741  134.9854  155.7589 C.ar    1  UNL1        0.1549
     33 N         143.2024  135.1577  156.8373 N.ar    1  UNL1       -0.2276
     34 C         143.7687  133.9553  157.5325 C.ar    1  UNL1        0.1019
     35 C         143.3068  132.5806  157.1495 C.ar    1  UNL1        0.0413
     36 C         142.2786  132.4083  156.0712 C.ar    1  UNL1        0.1019
     37 N         141.7122  133.6107  155.3758 N.ar    1  UNL1       -0.2276
     38 C         139.2398  144.5627  164.7715 C.3     1  UNL1        0.1109
     39 N         140.4296  143.6662  164.9467 N.am    1  UNL1       -0.2991
     40 C         140.2974  142.1903  164.7132 C.2     1  UNL1        0.2490
     41 O         138.9755  141.6111  164.3045 O.2     1  UNL1       -0.2700
     42 H         141.2972  144.0464  165.2149 H       1  UNL1        0.1498
@<TRIPOS>BOND
     1    38    39    1
     2    39    40   am
     3    40    41    2
     4    40     1    1
     5     1     2   ar
     6     2    11    1
     7    11    12   ar
     8    12    13   ar
     9    13    14   ar
    10    14    15    1
    11    14    16   ar
    12    16    17   ar
    13     2     3   ar
    14     3     4   ar
    15     4     5   ar
    16     5     6   ar
    17     6     7   ar
    18     7    18    1
    19    18    19   ar
    20    19    20   ar
    21    20    25    1
    22    25    26    2
    23    25    27   am
    24    27    29    1
    25    29    32    1
    26    32    33   ar
    27    33    34   ar
    28    34    35   ar
    29    35    36   ar
    30    36    37   ar
    31    29    30    1
    32    30    31    1
    33    20    21   ar
    34    21    22   ar
    35    22    23   ar
    36    23    24    1
    37     7     8   ar
    38     8     9    1
    39     8    10   ar
    40    10     1   ar
    41    17    11   ar
    42    10     4   ar
    43    23    18   ar
    44    31    29    1
    45    37    32   ar
    46    39    42    1
    47    27    28    1
@<TRIPOS>MOLECULE
*****
 42 47 0 0 0
SMALL
GASTEIGER

@<TRIPOS>ATOM
      1 C         142.3828  133.8177  155.7934 C.ar    1  UNL1        0.0929
      2 C         141.7359  133.3957  154.5075 C.ar    1  UNL1        0.1497
      3 O         141.0186  134.5836  153.9380 O.2     1  UNL1       -0.4533
      4 C         141.2222  135.7397  154.8718 C.ar    1  UNL1        0.1476
      5 C         140.7488  137.1622  154.8260 C.ar    1  UNL1        0.0376
      6 C         141.1186  138.1114  155.9271 C.ar    1  UNL1        0.0054
      7 C         141.9617  137.6381  157.0738 C.ar    1  UNL1        0.0274
      8 C         142.4351  136.2155  157.1195 C.ar    1  UNL1        0.1432
      9 F         143.2783  135.7421  158.2663 F       1  UNL1       -0.2041
     10 C         142.0654  135.2663  156.0185 C.ar    1  UNL1        0.0693
     11 C         141.7957  132.0263  153.8983 C.ar    1  UNL1        0.0349
     12 C         140.7130  131.0291  154.1867 C.ar    1  UNL1        0.0053
     13 C         140.7728  129.6597  153.5774 C.ar    1  UNL1        0.0297
     14 C         141.9154  129.2876  152.6797 C.ar    1  UNL1        0.1401
     15 F         141.9752  127.9182  152.0704 F       1  UNL1       -0.2042
     16 C         142.9981  130.2848  152.3913 C.ar    1  UNL1        0.0297
     17 C         142.9383  131.6541  153.0005 C.ar    1  UNL1        0.0053
     18 C         142.3315  138.5873  158.1748 C.ar    1  UNL1       -0.0016
     19 C         141.7291  138.4250  159.5389 C.ar    1  UNL1        0.0043
     20 C         142.0989  139.3743  160.6400 C.ar    1  UNL1        0.0533
     21 C         143.0710  140.4859  160.3768 C.ar    1  UNL1        0.0042
     22 C         143.6734  140.6482  159.0127 C.ar    1  UNL1       -0.0041
     23 C         143.3036  139.6990  157.9117 C.ar    1  UNL1       -0.0218
     24 C         143.9060  139.8613  156.5476 C.3     1  UNL1        0.0310
     25 C         141.4965  139.2119  162.0040 C.2     1  UNL1        0.2461
     26 O         142.3600  139.3333  163.2245 O.2     1  UNL1       -0.2701
     27 N         140.0306  138.9281  162.1476 N.am    1  UNL1       -0.2976
     28 H         139.4638  138.8484  161.3466 H       1  UNL1        0.1500
     29 C         139.4282  138.7657  163.5117 C.3     1  UNL1        0.1092
     30 C         138.9861  138.1153  164.7890 C.3     1  UNL1        0.0274
     31 C         139.6805  137.3041  163.7355 C.3     1  UNL1        0.0274
     32 C         138.9668  140.1709  163.7617 C.ar    1  UNL1        0.1549
     33 N         137.7999  140.7241  162.9984 N.ar    1  UNL1       -0.2276
     34 C         137.3386  142.1293  163.2485 C.ar    1  UNL1        0.1019
     35 C         138.0440  142.9813  164.2616 C.ar    1  UNL1        0.0413
     36 C         139.2107  142.4281  165.0248 C.ar    1  UNL1        0.1019
     37 N         139.6722  141.0229  164.7748 N.ar    1  UNL1       -0.2276
     38 C         145.4371  132.4504  157.9270 C.3     1  UNL1        0.1109
     39 N         144.6167  133.3238  157.0247 N.am    1  UNL1       -0.2991
     40 C         143.2032  132.9443  156.6958 C.2     1  UNL1        0.2490
     41 O         142.6102  131.6916  157.2692 O.2     1  UNL1       -0.2700
     42 H         145.0060  134.1460  156.6483 H       1  UNL1        0.1498
@<TRIPOS>BOND
     1    38    39    1
     2    39    40   am
     3    40    41    2
     4    40     1    1
     5     1     2   ar
     6     2    11    1
     7    11    12   ar
     8    12    13   ar
     9    13    14   ar
    10    14    15    1
    11    14    16   ar
    12    16    17   ar
    13     2     3   ar
    14     3     4   ar
    15     4     5   ar
    16     5     6   ar
    17     6     7   ar
    18     7    18    1
    19    18    19   ar
    20    19    20   ar
    21    20    25    1
    22    25    26    2
    23    25    27   am
    24    27    29    1
    25    29    32    1
    26    32    33   ar
    27    33    34   ar
    28    34    35   ar
    29    35    36   ar
    30    36    37   ar
    31    29    30    1
    32    30    31    1
    33    20    21   ar
    34    21    22   ar
    35    22    23   ar
    36    23    24    1
    37     7     8   ar
    38     8     9    1
    39     8    10   ar
    40    10     1   ar
    41    17    11   ar
    42    10     4   ar
    43    23    18   ar
    44    31    29    1
    45    37    32   ar
    46    39    42    1
    47    27    28    1
@<TRIPOS>MOLECULE
*****
 42 47 0 0 0
SMALL
GASTEIGER

@<TRIPOS>ATOM
      1 C         141.1827  141.1406  164.2191 C.ar    1  UNL1        0.0929
      2 C         141.6716  140.7463  165.5813 C.ar    1  UNL1        0.1497
      3 O         142.9611  139.9989  165.4124 O.2     1  UNL1       -0.4533
      4 C         143.2691  139.9312  163.9460 C.ar    1  UNL1        0.1476
      5 C         144.4084  139.3182  163.1869 C.ar    1  UNL1        0.0376
      6 C         144.4485  139.4109  161.6903 C.ar    1  UNL1        0.0054
      7 C         143.3494  140.1166  160.9528 C.ar    1  UNL1        0.0274
      8 C         142.2101  140.7296  161.7119 C.ar    1  UNL1        0.1432
      9 F         141.1110  141.4352  160.9744 F       1  UNL1       -0.2041
     10 C         142.1700  140.6369  163.2084 C.ar    1  UNL1        0.0693
     11 C         140.9906  141.0467  166.8836 C.ar    1  UNL1        0.0349
     12 C         141.0774  142.4222  167.4756 C.ar    1  UNL1        0.0053
     13 C         140.3965  142.7226  168.7779 C.ar    1  UNL1        0.0297
     14 C         139.6287  141.6476  169.4882 C.ar    1  UNL1        0.1401
     15 F         138.9477  141.9480  170.7906 F       1  UNL1       -0.2042
     16 C         139.5418  140.2721  168.8963 C.ar    1  UNL1        0.0297
     17 C         140.2228  139.9717  167.5940 C.ar    1  UNL1        0.0053
     18 C         143.3896  140.2092  159.4562 C.ar    1  UNL1       -0.0016
     19 C         143.1029  138.9963  158.6217 C.ar    1  UNL1        0.0043
     20 C         143.1431  139.0889  157.1250 C.ar    1  UNL1        0.0533
     21 C         143.4700  140.3946  156.4630 C.ar    1  UNL1        0.0042
     22 C         143.7568  141.6076  157.2976 C.ar    1  UNL1       -0.0041
     23 C         143.7165  141.5149  158.7941 C.ar    1  UNL1       -0.0218
     24 C         144.0033  142.7279  159.6287 C.3     1  UNL1        0.0310
     25 C         142.8563  137.8760  156.2905 C.2     1  UNL1        0.2461
     26 O         143.6098  137.6490  155.0135 O.2     1  UNL1       -0.2701
     27 N         141.8162  136.8899  156.7330 N.am    1  UNL1       -0.2976
     28 H         141.3217  137.0389  157.5712 H       1  UNL1        0.1500
     29 C         141.5295  135.6770  155.8985 C.3     1  UNL1        0.1092
     30 C         141.6292  134.2801  155.3610 C.3     1  UNL1        0.0274
     31 C         142.5427  134.7263  156.4640 C.3     1  UNL1        0.0274
     32 C         140.4167  136.2063  155.0433 C.ar    1  UNL1        0.1549
     33 N         139.2941  136.9808  155.6677 N.ar    1  UNL1       -0.2276
     34 C         138.1814  137.5101  154.8124 C.ar    1  UNL1        0.1019
     35 C         138.1912  137.2649  153.3326 C.ar    1  UNL1        0.0413
     36 C         139.3137  136.4905  152.7082 C.ar    1  UNL1        0.1019
     37 N         140.4265  135.9611  153.5635 N.ar    1  UNL1       -0.2276
     38 C         137.4691  141.9533  163.0790 C.3     1  UNL1        0.1109
     39 N         138.7249  141.1893  163.3780 N.am    1  UNL1       -0.2991
     40 C         139.9269  141.9046  163.9201 C.2     1  UNL1        0.2490
     41 O         139.8730  143.3837  164.1632 O.2     1  UNL1       -0.2700
     42 H         138.7603  140.2185  163.2185 H       1  UNL1        0.1498
@<TRIPOS>BOND
     1    38    39    1
     2    39    40   am
     3    40    41    2
     4    40     1    1
     5     1     2   ar
     6     2    11    1
     7    11    12   ar
     8    12    13   ar
     9    13    14   ar
    10    14    15    1
    11    14    16   ar
    12    16    17   ar
    13     2     3   ar
    14     3     4   ar
    15     4     5   ar
    16     5     6   ar
    17     6     7   ar
    18     7    18    1
    19    18    19   ar
    20    19    20   ar
    21    20    25    1
    22    25    26    2
    23    25    27   am
    24    27    29    1
    25    29    32    1
    26    32    33   ar
    27    33    34   ar
    28    34    35   ar
    29    35    36   ar
    30    36    37   ar
    31    29    30    1
    32    30    31    1
    33    20    21   ar
    34    21    22   ar
    35    22    23   ar
    36    23    24    1
    37     7     8   ar
    38     8     9    1
    39     8    10   ar
    40    10     1   ar
    41    17    11   ar
    42    10     4   ar
    43    23    18   ar
    44    31    29    1
    45    37    32   ar
    46    39    42    1
    47    27    28    1
