@<TRIPOS>MOLECULE
*****
 29 33 0 0 0
SMALL
GASTEIGER

@<TRIPOS>ATOM
      1 C         140.2238  138.9765  163.5554 C.ar    1  UNL1        0.1133
      2 C         138.9471  138.4187  164.1112 C.ar    1  UNL1        0.0189
      3 C         138.5782  138.6725  165.5429 C.ar    1  UNL1        0.0041
      4 C         139.4861  139.4840  166.4187 C.ar    1  UNL1        0.0333
      5 C         139.3875  139.8965  167.8575 C.ar    1  UNL1        0.0138
      6 C         140.6034  140.7093  168.1909 C.ar    1  UNL1        0.1337
      7 O         141.4534  140.7990  166.9583 O.2     1  UNL1       -0.4567
      8 C         140.7629  140.0418  165.8630 C.ar    1  UNL1        0.1459
      9 C         141.1317  139.7880  164.4314 C.ar    1  UNL1        0.0562
     10 C         140.7795  141.2627  169.5740 C.3     1  UNL1        0.1210
     11 C         141.8192  141.5220  168.5244 C.3     1  UNL1        0.0268
     12 C         143.0350  142.3348  168.8579 C.3     1  UNL1        0.0339
     13 C         143.2111  142.8881  170.2410 C.3     1  UNL1        0.1423
     14 O         142.1713  142.6288  171.2905 O.3     1  UNL1       -0.3519
     15 C         140.9555  141.8160  170.9570 C.3     1  UNL1        0.1637
     16 N         139.7397  141.0033  170.6236 N.3     1  UNL1       -0.2917
     17 C         138.5239  140.1905  170.2901 C.3     1  UNL1        0.0737
     18 C         138.3478  139.6372  168.9070 C.3     1  UNL1        0.0463
     19 H         139.4072  141.9141  170.9402 H       1  UNL1        0.1236
     20 O         140.7692  137.2645  162.4278 O.2     1  UNL1       -0.1642
     21 S         140.5926  138.7227  162.1238 S.O2    1  UNL1        0.0276
     22 O         140.4161  140.1809  161.8198 O.2     1  UNL1       -0.1642
     23 C         140.9615  138.4690  160.6922 C.ar    1  UNL1        0.1125
     24 C         142.3658  138.0792  160.3373 C.ar    1  UNL1        0.0189
     25 C         142.7347  137.8255  158.9057 C.ar    1  UNL1        0.0036
     26 C         141.6992  137.9615  157.8290 C.ar    1  UNL1        0.0297
     27 C         140.2949  138.3512  158.1839 C.ar    1  UNL1        0.1414
     28 F         139.2594  138.4871  157.1071 F       1  UNL1       -0.2041
     29 C         139.9260  138.6049  159.6155 C.ar    1  UNL1        0.0484
@<TRIPOS>BOND
     1    20    21    2
     2    21    22    2
     3    21    23    1
     4    23    24   ar
     5    24    25   ar
     6    25    26   ar
     7    26    27   ar
     8    27    28    1
     9    27    29   ar
    10    21     1    1
    11     1     2   ar
    12     2     3   ar
    13     3     4   ar
    14     4     5   ar
    15     5     6   ar
    16     6     7   ar
    17     7     8   ar
    18     8     9   ar
    19     6    10    1
    20    10    11    1
    21    11    12    1
    22    12    13    1
    23    13    14    1
    24    14    15    1
    25    10    16    1
    26    16    17    1
    27    17    18    1
    28    29    23   ar
    29     9     1   ar
    30    15    10    1
    31     8     4   ar
    32    18     5    1
    33    16    19    1
@<TRIPOS>MOLECULE
*****
 29 33 0 0 0
SMALL
GASTEIGER

@<TRIPOS>ATOM
      1 C         140.9757  144.1302  161.8021 C.ar    1  UNL1        0.1133
      2 C         140.2052  144.9265  162.8132 C.ar    1  UNL1        0.0189
      3 C         140.1602  144.4788  164.2442 C.ar    1  UNL1        0.0041
      4 C         140.8857  143.2349  164.6640 C.ar    1  UNL1        0.0333
      5 C         141.0212  142.5522  165.9928 C.ar    1  UNL1        0.0138
      6 C         141.8755  141.3339  165.8029 C.ar    1  UNL1        0.1337
      7 O         142.2679  141.2638  164.3568 O.2     1  UNL1       -0.4567
      8 C         141.6562  142.4386  163.6530 C.ar    1  UNL1        0.1459
      9 C         141.7012  142.8862  162.2221 C.ar    1  UNL1        0.0562
     10 C         142.1857  140.4459  166.9713 C.3     1  UNL1        0.1210
     11 C         142.7298  140.1157  165.6130 C.3     1  UNL1        0.0268
     12 C         143.5841  138.8975  165.4232 C.3     1  UNL1        0.0339
     13 C         143.8942  138.0094  166.5916 C.3     1  UNL1        0.1423
     14 O         143.3501  138.3396  167.9499 O.3     1  UNL1       -0.3519
     15 C         142.4959  139.5579  168.1397 C.3     1  UNL1        0.1637
     16 N         141.6415  140.7761  168.3296 N.3     1  UNL1       -0.2917
     17 C         140.7873  141.9944  168.5194 C.3     1  UNL1        0.0737
     18 C         140.4771  142.8824  167.3510 C.3     1  UNL1        0.0463
     19 H         142.4437  140.8793  168.9511 H       1  UNL1        0.1236
     20 O         139.5351  144.7841  160.3890 O.2     1  UNL1       -0.1642
     21 S         141.0207  144.5778  160.3712 S.O2    1  UNL1        0.0276
     22 O         142.5064  144.3716  160.3534 O.2     1  UNL1       -0.1642
     23 C         141.0658  145.0255  158.9403 C.ar    1  UNL1        0.1125
     24 C         142.2015  144.6011  158.0571 C.ar    1  UNL1        0.0189
     25 C         142.2465  145.0487  156.6262 C.ar    1  UNL1        0.0036
     26 C         141.1558  145.9207  156.0784 C.ar    1  UNL1        0.0297
     27 C         140.0201  146.3451  156.9616 C.ar    1  UNL1        0.1414
     28 F         138.9294  147.2171  156.4138 F       1  UNL1       -0.2041
     29 C         139.9751  145.8975  158.3925 C.ar    1  UNL1        0.0484
@<TRIPOS>BOND
     1    20    21    2
     2    21    22    2
     3    21    23    1
     4    23    24   ar
     5    24    25   ar
     6    25    26   ar
     7    26    27   ar
     8    27    28    1
     9    27    29   ar
    10    21     1    1
    11     1     2   ar
    12     2     3   ar
    13     3     4   ar
    14     4     5   ar
    15     5     6   ar
    16     6     7   ar
    17     7     8   ar
    18     8     9   ar
    19     6    10    1
    20    10    11    1
    21    11    12    1
    22    12    13    1
    23    13    14    1
    24    14    15    1
    25    10    16    1
    26    16    17    1
    27    17    18    1
    28    29    23   ar
    29     9     1   ar
    30    15    10    1
    31     8     4   ar
    32    18     5    1
    33    16    19    1
@<TRIPOS>MOLECULE
*****
 29 33 0 0 0
SMALL
GASTEIGER

@<TRIPOS>ATOM
      1 C         141.6237  143.9365  161.5143 C.ar    1  UNL1        0.1133
      2 C         142.7588  144.4259  162.3641 C.ar    1  UNL1        0.0189
      3 C         142.8919  143.9541  163.7818 C.ar    1  UNL1        0.0041
      4 C         141.8899  142.9931  164.3497 C.ar    1  UNL1        0.0333
      5 C         141.7637  142.3576  165.7025 C.ar    1  UNL1        0.0138
      6 C         140.5505  141.4755  165.6888 C.ar    1  UNL1        0.1337
      7 O         139.9271  141.5658  164.3275 O.2     1  UNL1       -0.4567
      8 C         140.7549  142.5037  163.4999 C.ar    1  UNL1        0.1459
      9 C         140.6217  142.9754  162.0822 C.ar    1  UNL1        0.0562
     10 C         140.1703  140.7040  166.9177 C.3     1  UNL1        0.1210
     11 C         139.3374  140.5934  165.6752 C.3     1  UNL1        0.0268
     12 C         138.1243  139.7113  165.6615 C.3     1  UNL1        0.0339
     13 C         137.7441  138.9398  166.8904 C.3     1  UNL1        0.1423
     14 O         138.5769  139.0504  168.1330 O.3     1  UNL1       -0.3519
     15 C         139.7900  139.9325  168.1466 C.3     1  UNL1        0.1637
     16 N         141.0032  140.8146  168.1603 N.3     1  UNL1       -0.2917
     17 C         142.2163  141.6967  168.1740 C.3     1  UNL1        0.0737
     18 C         142.5965  142.4682  166.9451 C.3     1  UNL1        0.0463
     19 H         141.3218  139.8723  168.3861 H       1  UNL1        0.1236
     20 O         142.9034  143.9849  159.8231 O.2     1  UNL1       -0.1642
     21 S         141.4906  144.4082  160.0966 S.O2    1  UNL1        0.0276
     22 O         140.0778  144.8314  160.3701 O.2     1  UNL1       -0.1642
     23 C         141.3575  144.8798  158.6790 C.ar    1  UNL1        0.1125
     24 C         142.3592  144.4503  157.6485 C.ar    1  UNL1        0.0189
     25 C         142.2261  144.9219  156.2308 C.ar    1  UNL1        0.0036
     26 C         141.0912  145.8232  155.8437 C.ar    1  UNL1        0.0297
     27 C         140.0895  146.2527  156.8742 C.ar    1  UNL1        0.1414
     28 F         138.9546  147.1539  156.4870 F       1  UNL1       -0.2041
     29 C         140.2226  145.7810  158.2918 C.ar    1  UNL1        0.0484
@<TRIPOS>BOND
     1    20    21    2
     2    21    22    2
     3    21    23    1
     4    23    24   ar
     5    24    25   ar
     6    25    26   ar
     7    26    27   ar
     8    27    28    1
     9    27    29   ar
    10    21     1    1
    11     1     2   ar
    12     2     3   ar
    13     3     4   ar
    14     4     5   ar
    15     5     6   ar
    16     6     7   ar
    17     7     8   ar
    18     8     9   ar
    19     6    10    1
    20    10    11    1
    21    11    12    1
    22    12    13    1
    23    13    14    1
    24    14    15    1
    25    10    16    1
    26    16    17    1
    27    17    18    1
    28    29    23   ar
    29     9     1   ar
    30    15    10    1
    31     8     4   ar
    32    18     5    1
    33    16    19    1
@<TRIPOS>MOLECULE
*****
 29 33 0 0 0
SMALL
GASTEIGER

@<TRIPOS>ATOM
      1 C         143.1723  140.4587  163.4948 C.ar    1  UNL1        0.1133
      2 C         143.7508  139.1712  164.0026 C.ar    1  UNL1        0.0189
      3 C         143.6204  138.8108  165.4528 C.ar    1  UNL1        0.0041
      4 C         142.9115  139.7378  166.3952 C.ar    1  UNL1        0.0333
      5 C         142.6294  139.6510  167.8659 C.ar    1  UNL1        0.0138
      6 C         141.8765  140.8848  168.2670 C.ar    1  UNL1        0.1337
      7 O         141.6933  141.7341  167.0443 O.2     1  UNL1       -0.4567
      8 C         142.3329  141.0252  165.8874 C.ar    1  UNL1        0.1459
      9 C         142.4634  141.3857  164.4373 C.ar    1  UNL1        0.0562
     10 C         141.4550  141.0755  169.6939 C.3     1  UNL1        0.1210
     11 C         141.1236  142.1186  168.6682 C.3     1  UNL1        0.0268
     12 C         140.3708  143.3524  169.0694 C.3     1  UNL1        0.0339
     13 C         139.9493  143.5431  170.4962 C.3     1  UNL1        0.1423
     14 O         140.2807  142.5000  171.5220 O.3     1  UNL1       -0.3519
     15 C         141.0336  141.2662  171.1208 C.3     1  UNL1        0.1637
     16 N         141.7865  140.0324  170.7197 N.3     1  UNL1       -0.2917
     17 C         142.5393  138.7986  170.3185 C.3     1  UNL1        0.0737
     18 C         142.9608  138.6079  168.8916 C.3     1  UNL1        0.0463
     19 H         140.9013  139.7204  171.1190 H       1  UNL1        0.1236
     20 O         144.3794  139.7871  161.8849 O.2     1  UNL1       -0.1642
     21 S         143.3027  140.8191  162.0446 S.O2    1  UNL1        0.0276
     22 O         142.2260  141.8512  162.2043 O.2     1  UNL1       -0.1642
     23 C         143.4331  141.1796  160.5944 C.ar    1  UNL1        0.1125
     24 C         143.8075  140.1291  159.5913 C.ar    1  UNL1        0.0189
     25 C         143.9379  140.4896  158.1411 C.ar    1  UNL1        0.0036
     26 C         143.6939  141.9005  157.6941 C.ar    1  UNL1        0.0297
     27 C         143.3196  142.9510  158.6973 C.ar    1  UNL1        0.1414
     28 F         143.0756  144.3619  158.2502 F       1  UNL1       -0.2041
     29 C         143.1892  142.5905  160.1474 C.ar    1  UNL1        0.0484
@<TRIPOS>BOND
     1    20    21    2
     2    21    22    2
     3    21    23    1
     4    23    24   ar
     5    24    25   ar
     6    25    26   ar
     7    26    27   ar
     8    27    28    1
     9    27    29   ar
    10    21     1    1
    11     1     2   ar
    12     2     3   ar
    13     3     4   ar
    14     4     5   ar
    15     5     6   ar
    16     6     7   ar
    17     7     8   ar
    18     8     9   ar
    19     6    10    1
    20    10    11    1
    21    11    12    1
    22    12    13    1
    23    13    14    1
    24    14    15    1
    25    10    16    1
    26    16    17    1
    27    17    18    1
    28    29    23   ar
    29     9     1   ar
    30    15    10    1
    31     8     4   ar
    32    18     5    1
    33    16    19    1
@<TRIPOS>MOLECULE
*****
 29 33 0 0 0
SMALL
GASTEIGER

@<TRIPOS>ATOM
      1 C         143.2849  142.7313  163.4648 C.ar    1  UNL1        0.1133
      2 C         144.4002  143.2980  164.2925 C.ar    1  UNL1        0.0189
      3 C         144.3650  143.1703  165.7867 C.ar    1  UNL1        0.0041
      4 C         143.2145  142.4760  166.4532 C.ar    1  UNL1        0.0333
      5 C         142.9081  142.1998  167.8953 C.ar    1  UNL1        0.0138
      6 C         141.6034  141.4623  167.9590 C.ar    1  UNL1        0.1337
      7 O         141.1035  141.2828  166.5562 O.2     1  UNL1       -0.4567
      8 C         142.0991  141.9093  165.6255 C.ar    1  UNL1        0.1459
      9 C         142.1343  142.0370  164.1314 C.ar    1  UNL1        0.0562
     10 C         141.0392  141.0496  169.2861 C.3     1  UNL1        0.1210
     11 C         140.2987  140.7249  168.0227 C.3     1  UNL1        0.0268
     12 C         138.9941  139.9875  168.0864 C.3     1  UNL1        0.0339
     13 C         138.4299  139.5748  169.4135 C.3     1  UNL1        0.1423
     14 O         139.1703  139.8994  170.6770 O.3     1  UNL1       -0.3519
     15 C         140.4750  140.6368  170.6133 C.3     1  UNL1        0.1637
     16 N         141.7797  141.3743  170.5496 N.3     1  UNL1       -0.2917
     17 C         143.0843  142.1117  170.4859 C.3     1  UNL1        0.0737
     18 C         143.6485  142.5244  169.1588 C.3     1  UNL1        0.0463
     19 H         141.9652  140.4876  171.0183 H       1  UNL1        0.1236
     20 O         142.4303  141.6577  161.8471 O.2     1  UNL1       -0.1642
     21 S         143.3200  142.8590  161.9707 S.O2    1  UNL1        0.0276
     22 O         144.2098  144.0602  162.0943 O.2     1  UNL1       -0.1642
     23 C         143.3552  142.9866  160.4766 C.ar    1  UNL1        0.1125
     24 C         142.2358  143.6781  159.7564 C.ar    1  UNL1        0.0189
     25 C         142.2710  143.8058  158.2623 C.ar    1  UNL1        0.0036
     26 C         143.4256  143.2419  157.4883 C.ar    1  UNL1        0.0297
     27 C         144.5450  142.5504  158.2085 C.ar    1  UNL1        0.1414
     28 F         145.6996  141.9866  157.4346 F       1  UNL1       -0.2041
     29 C         144.5098  142.4228  159.7026 C.ar    1  UNL1        0.0484
@<TRIPOS>BOND
     1    20    21    2
     2    21    22    2
     3    21    23    1
     4    23    24   ar
     5    24    25   ar
     6    25    26   ar
     7    26    27   ar
     8    27    28    1
     9    27    29   ar
    10    21     1    1
    11     1     2   ar
    12     2     3   ar
    13     3     4   ar
    14     4     5   ar
    15     5     6   ar
    16     6     7   ar
    17     7     8   ar
    18     8     9   ar
    19     6    10    1
    20    10    11    1
    21    11    12    1
    22    12    13    1
    23    13    14    1
    24    14    15    1
    25    10    16    1
    26    16    17    1
    27    17    18    1
    28    29    23   ar
    29     9     1   ar
    30    15    10    1
    31     8     4   ar
    32    18     5    1
    33    16    19    1
@<TRIPOS>MOLECULE
*****
 29 33 0 0 0
SMALL
GASTEIGER

@<TRIPOS>ATOM
      1 C         140.0322  142.5675  161.7984 C.ar    1  UNL1        0.1133
      2 C         138.9942  141.4955  161.6452 C.ar    1  UNL1        0.0189
      3 C         138.5502  140.7051  162.8403 C.ar    1  UNL1        0.0041
      4 C         139.1441  140.9867  164.1886 C.ar    1  UNL1        0.0333
      5 C         138.9057  140.3760  165.5377 C.ar    1  UNL1        0.0138
      6 C         139.7963  141.0706  166.5248 C.ar    1  UNL1        0.1337
      7 O         140.5852  142.1105  165.7857 O.2     1  UNL1       -0.4567
      8 C         140.1821  142.0587  164.3418 C.ar    1  UNL1        0.1459
      9 C         140.6262  142.8490  163.1468 C.ar    1  UNL1        0.0562
     10 C         139.7739  140.6664  167.9692 C.3     1  UNL1        0.1210
     11 C         140.6869  141.7652  167.5119 C.3     1  UNL1        0.0268
     12 C         141.5776  142.4597  168.4990 C.3     1  UNL1        0.0339
     13 C         141.5551  142.0555  169.9434 C.3     1  UNL1        0.1423
     14 O         140.6421  140.9567  170.4006 O.3     1  UNL1       -0.3519
     15 C         139.7515  140.2622  169.4135 C.3     1  UNL1        0.1637
     16 N         138.8608  139.5676  168.4264 N.3     1  UNL1       -0.2917
     17 C         137.9702  138.8731  167.4393 C.3     1  UNL1        0.0737
     18 C         137.9926  139.2773  165.9950 C.3     1  UNL1        0.0463
     19 H         138.2527  139.9682  169.1406 H       1  UNL1        0.1236
     20 O         139.0485  143.4971  160.1650 O.2     1  UNL1       -0.1642
     21 S         140.4762  143.3579  160.6034 S.O2    1  UNL1        0.0276
     22 O         141.9040  143.2186  161.0418 O.2     1  UNL1       -0.1642
     23 C         140.9203  144.1482  159.4084 C.ar    1  UNL1        0.1125
     24 C         142.2438  143.8563  158.7658 C.ar    1  UNL1        0.0189
     25 C         142.6879  144.6467  157.5707 C.ar    1  UNL1        0.0036
     26 C         141.8084  145.7290  157.0183 C.ar    1  UNL1        0.0297
     27 C         140.4848  146.0209  157.6610 C.ar    1  UNL1        0.1414
     28 F         139.6053  147.1032  157.1086 F       1  UNL1       -0.2041
     29 C         140.0408  145.2305  158.8560 C.ar    1  UNL1        0.0484
@<TRIPOS>BOND
     1    20    21    2
     2    21    22    2
     3    21    23    1
     4    23    24   ar
     5    24    25   ar
     6    25    26   ar
     7    26    27   ar
     8    27    28    1
     9    27    29   ar
    10    21     1    1
    11     1     2   ar
    12     2     3   ar
    13     3     4   ar
    14     4     5   ar
    15     5     6   ar
    16     6     7   ar
    17     7     8   ar
    18     8     9   ar
    19     6    10    1
    20    10    11    1
    21    11    12    1
    22    12    13    1
    23    13    14    1
    24    14    15    1
    25    10    16    1
    26    16    17    1
    27    17    18    1
    28    29    23   ar
    29     9     1   ar
    30    15    10    1
    31     8     4   ar
    32    18     5    1
    33    16    19    1
@<TRIPOS>MOLECULE
*****
 29 33 0 0 0
SMALL
GASTEIGER

@<TRIPOS>ATOM
      1 C         141.0314  140.2801  165.1941 C.ar    1  UNL1        0.1133
      2 C         140.6010  138.8978  164.8015 C.ar    1  UNL1        0.0189
      3 C         140.9567  138.3576  163.4480 C.ar    1  UNL1        0.0041
      4 C         141.7427  139.1997  162.4873 C.ar    1  UNL1        0.0333
      5 C         142.2366  138.9383  161.0953 C.ar    1  UNL1        0.0138
      6 C         142.9722  140.1590  160.6276 C.ar    1  UNL1        0.1337
      7 O         142.9329  141.1749  161.7305 O.2     1  UNL1       -0.4567
      8 C         142.1731  140.5820  162.8799 C.ar    1  UNL1        0.1459
      9 C         141.8174  141.1222  164.2333 C.ar    1  UNL1        0.0562
     10 C         143.5827  140.1879  159.2577 C.3     1  UNL1        0.1210
     11 C         143.7078  141.3797  160.1598 C.3     1  UNL1        0.0268
     12 C         144.4434  142.6004  159.6921 C.3     1  UNL1        0.0339
     13 C         145.0539  142.6292  158.3223 C.3     1  UNL1        0.1423
     14 O         144.9289  141.4374  157.4202 O.3     1  UNL1       -0.3519
     15 C         144.1933  140.2167  157.8879 C.3     1  UNL1        0.1637
     16 N         143.4577  138.9959  158.3556 N.3     1  UNL1       -0.2917
     17 C         142.7221  137.7752  158.8234 C.3     1  UNL1        0.0737
     18 C         142.1115  137.7464  160.1932 C.3     1  UNL1        0.0463
     19 H         144.4063  138.6986  158.1273 H       1  UNL1        0.1236
     20 O         142.0901  140.6132  167.0019 O.2     1  UNL1       -0.1642
     21 S         140.6757  140.8203  166.5475 S.O2    1  UNL1        0.0276
     22 O         139.2613  141.0274  166.0931 O.2     1  UNL1       -0.1642
     23 C         140.3200  141.3605  167.9009 C.ar    1  UNL1        0.1125
     24 C         139.6037  140.4908  168.8910 C.ar    1  UNL1        0.0189
     25 C         139.2480  141.0310  170.2444 C.ar    1  UNL1        0.0036
     26 C         139.6087  142.4409  170.6076 C.ar    1  UNL1        0.0297
     27 C         140.3251  143.3107  169.6175 C.ar    1  UNL1        0.1414
     28 F         140.6858  144.7206  169.9808 F       1  UNL1       -0.2041
     29 C         140.6808  142.7705  168.2641 C.ar    1  UNL1        0.0484
@<TRIPOS>BOND
     1    20    21    2
     2    21    22    2
     3    21    23    1
     4    23    24   ar
     5    24    25   ar
     6    25    26   ar
     7    26    27   ar
     8    27    28    1
     9    27    29   ar
    10    21     1    1
    11     1     2   ar
    12     2     3   ar
    13     3     4   ar
    14     4     5   ar
    15     5     6   ar
    16     6     7   ar
    17     7     8   ar
    18     8     9   ar
    19     6    10    1
    20    10    11    1
    21    11    12    1
    22    12    13    1
    23    13    14    1
    24    14    15    1
    25    10    16    1
    26    16    17    1
    27    17    18    1
    28    29    23   ar
    29     9     1   ar
    30    15    10    1
    31     8     4   ar
    32    18     5    1
    33    16    19    1
@<TRIPOS>MOLECULE
*****
 29 33 0 0 0
SMALL
GASTEIGER

@<TRIPOS>ATOM
      1 C         141.6766  139.1449  164.8914 C.ar    1  UNL1        0.1133
      2 C         141.2272  137.8363  164.3120 C.ar    1  UNL1        0.0189
      3 C         141.4620  137.5385  162.8607 C.ar    1  UNL1        0.0041
      4 C         142.1462  138.5493  161.9888 C.ar    1  UNL1        0.0333
      5 C         142.5119  138.5365  160.5342 C.ar    1  UNL1        0.0138
      6 C         143.1873  139.8372  160.2145 C.ar    1  UNL1        0.1337
      7 O         143.2389  140.6538  161.4716 O.2     1  UNL1       -0.4567
      8 C         142.5955  139.8580  162.5682 C.ar    1  UNL1        0.1459
      9 C         142.3607  140.1557  164.0195 C.ar    1  UNL1        0.0562
     10 C         143.6679  140.1098  158.8200 C.3     1  UNL1        0.1210
     11 C         143.8626  141.1378  159.8948 C.3     1  UNL1        0.0268
     12 C         144.5380  142.4384  159.5752 C.3     1  UNL1        0.0339
     13 C         145.0186  142.7110  158.1807 C.3     1  UNL1        0.1423
     14 O         144.8239  141.6830  157.1058 O.3     1  UNL1       -0.3519
     15 C         144.1486  140.3824  157.4255 C.3     1  UNL1        0.1637
     16 N         143.4732  139.0817  157.7452 N.3     1  UNL1       -0.2917
     17 C         142.7978  137.7811  158.0648 C.3     1  UNL1        0.0737
     18 C         142.3172  137.5085  159.4593 C.3     1  UNL1        0.0463
     19 H         144.3998  138.8519  157.3862 H       1  UNL1        0.1236
     20 O         139.9766  139.1784  166.1599 O.2     1  UNL1       -0.1642
     21 S         141.4418  139.4427  166.3427 S.O2    1  UNL1        0.0276
     22 O         142.9070  139.7069  166.5255 O.2     1  UNL1       -0.1642
     23 C         141.2070  139.7404  167.7940 C.ar    1  UNL1        0.1125
     24 C         142.3434  139.6589  168.7697 C.ar    1  UNL1        0.0189
     25 C         142.1086  139.9566  170.2209 C.ar    1  UNL1        0.0036
     26 C         140.7374  140.3360  170.6965 C.ar    1  UNL1        0.0297
     27 C         139.6011  140.4175  169.7208 C.ar    1  UNL1        0.1414
     28 F         138.2300  140.7969  170.1963 F       1  UNL1       -0.2041
     29 C         139.8359  140.1198  168.2695 C.ar    1  UNL1        0.0484
@<TRIPOS>BOND
     1    20    21    2
     2    21    22    2
     3    21    23    1
     4    23    24   ar
     5    24    25   ar
     6    25    26   ar
     7    26    27   ar
     8    27    28    1
     9    27    29   ar
    10    21     1    1
    11     1     2   ar
    12     2     3   ar
    13     3     4   ar
    14     4     5   ar
    15     5     6   ar
    16     6     7   ar
    17     7     8   ar
    18     8     9   ar
    19     6    10    1
    20    10    11    1
    21    11    12    1
    22    12    13    1
    23    13    14    1
    24    14    15    1
    25    10    16    1
    26    16    17    1
    27    17    18    1
    28    29    23   ar
    29     9     1   ar
    30    15    10    1
    31     8     4   ar
    32    18     5    1
    33    16    19    1
@<TRIPOS>MOLECULE
*****
 29 33 0 0 0
SMALL
GASTEIGER

@<TRIPOS>ATOM
      1 C         139.5720  141.1243  165.2639 C.ar    1  UNL1        0.1133
      2 C         138.8191  139.9262  164.7660 C.ar    1  UNL1        0.0189
      3 C         138.4467  139.8236  163.3165 C.ar    1  UNL1        0.0041
      4 C         138.8271  140.9190  162.3650 C.ar    1  UNL1        0.0333
      5 C         138.5988  141.0938  160.8929 C.ar    1  UNL1        0.0138
      6 C         139.2106  142.4000  160.4809 C.ar    1  UNL1        0.1337
      7 O         139.8170  143.0323  161.6984 O.2     1  UNL1       -0.4567
      8 C         139.5800  142.1170  162.8629 C.ar    1  UNL1        0.1459
      9 C         139.9524  142.2197  164.3122 C.ar    1  UNL1        0.0562
     10 C         139.1365  142.8448  159.0502 C.3     1  UNL1        0.1210
     11 C         139.8224  143.7061  160.0688 C.3     1  UNL1        0.0268
     12 C         140.4341  145.0122  159.6568 C.3     1  UNL1        0.0339
     13 C         140.3600  145.4570  158.2262 C.3     1  UNL1        0.1423
     14 O         139.6741  144.5956  157.2076 O.3     1  UNL1       -0.3519
     15 C         139.0624  143.2895  157.6196 C.3     1  UNL1        0.1637
     16 N         138.4505  141.9834  158.0316 N.3     1  UNL1       -0.2917
     17 C         137.8388  140.6773  158.4436 C.3     1  UNL1        0.0737
     18 C         137.9129  140.2325  159.8742 C.3     1  UNL1        0.0463
     19 H         139.1418  141.7708  157.3123 H       1  UNL1        0.1236
     20 O         140.3163  142.6666  166.5157 O.2     1  UNL1       -0.1642
     21 S         139.9445  141.2270  166.7132 S.O2    1  UNL1        0.0276
     22 O         139.5726  139.7873  166.9108 O.2     1  UNL1       -0.1642
     23 C         140.3169  141.3296  168.1626 C.ar    1  UNL1        0.1125
     24 C         139.8152  140.3084  169.1400 C.ar    1  UNL1        0.0189
     25 C         140.1877  140.4111  170.5894 C.ar    1  UNL1        0.0036
     26 C         141.0619  141.5350  171.0613 C.ar    1  UNL1        0.0297
     27 C         141.5636  142.5562  170.0839 C.ar    1  UNL1        0.1414
     28 F         142.4377  143.6801  170.5559 F       1  UNL1       -0.2041
     29 C         141.1911  142.4535  168.6345 C.ar    1  UNL1        0.0484
@<TRIPOS>BOND
     1    20    21    2
     2    21    22    2
     3    21    23    1
     4    23    24   ar
     5    24    25   ar
     6    25    26   ar
     7    26    27   ar
     8    27    28    1
     9    27    29   ar
    10    21     1    1
    11     1     2   ar
    12     2     3   ar
    13     3     4   ar
    14     4     5   ar
    15     5     6   ar
    16     6     7   ar
    17     7     8   ar
    18     8     9   ar
    19     6    10    1
    20    10    11    1
    21    11    12    1
    22    12    13    1
    23    13    14    1
    24    14    15    1
    25    10    16    1
    26    16    17    1
    27    17    18    1
    28    29    23   ar
    29     9     1   ar
    30    15    10    1
    31     8     4   ar
    32    18     5    1
    33    16    19    1
