@<TRIPOS>MOLECULE
*****
 39 43 0 0 0
SMALL
GASTEIGER

@<TRIPOS>ATOM
      1 C         143.7370  141.4135  157.5714 C.3     1  UNL1        0.0534
      2 C         143.8229  140.9404  158.9922 C.ar    1  UNL1        0.0728
      3 N         144.1539  141.9107  160.0872 N.ar    1  UNL1       -0.2467
      4 C         144.2399  141.4375  161.5080 C.ar    1  UNL1        0.1030
      5 C         143.9949  139.9940  161.8339 C.ar    1  UNL1        0.0737
      6 C         143.6639  139.0237  160.7390 C.ar    1  UNL1        0.0219
      7 C         143.5779  139.4969  159.3182 C.ar    1  UNL1        0.0645
      8 C         144.0808  139.5208  163.2547 C.2     1  UNL1        0.2474
      9 O         145.3224  139.7767  164.0566 O.2     1  UNL1       -0.2701
     10 N         142.9252  138.7917  163.8736 N.am    1  UNL1       -0.2994
     11 H         142.1103  138.6238  163.3472 H       1  UNL1        0.1498
     12 C         143.0111  138.3185  165.2944 C.3     1  UNL1        0.1070
     13 C         142.8210  139.2900  166.4213 C.3     1  UNL1        0.0935
     14 N         141.4474  139.5468  166.9665 N.3     1  UNL1       -0.2738
     15 C         140.1665  139.4989  166.1874 C.3     1  UNL1        0.0721
     16 C         139.0409  139.8191  167.1259 C.3     1  UNL1        0.0187
     17 C         139.6263  140.0649  168.4849 C.3     1  UNL1        0.0161
     18 C         141.1135  139.8966  168.3864 C.3     1  UNL1        0.0456
     19 C         141.0895  140.2256  169.8497 C.3     1  UNL1        0.0160
     20 C         142.5958  139.7971  168.5938 C.3     1  UNL1        0.0160
     21 N         143.2470  138.5265  158.2232 N.am    1  UNL1       -0.2794
     22 C         141.8222  138.1226  157.9843 C.2     1  UNL1        0.2526
     23 O         140.7285  138.6890  158.8404 O.2     1  UNL1       -0.2697
     24 H         143.9648  138.1548  157.6613 H       1  UNL1        0.1552
     25 C         141.4912  137.1523  156.8894 C.ar    1  UNL1        0.0921
     26 C         140.3872  137.2996  155.8847 C.ar    1  UNL1        0.1265
     27 N         140.4198  136.1027  154.9813 N.ar    1  UNL1       -0.1633
     28 N         141.5440  135.2155  155.4276 N.ar    1  UNL1       -0.2280
     29 C         142.0503  133.9009  154.9126 C.ar    1  UNL1        0.1004
     30 C         143.2187  133.2349  155.5768 C.ar    1  UNL1        0.0223
     31 C         143.8809  133.8837  156.7561 C.ar    1  UNL1        0.0032
     32 C         143.3746  135.1983  157.2712 C.ar    1  UNL1        0.0194
     33 C         142.2062  135.8643  156.6069 C.ar    1  UNL1        0.0888
     34 C         143.7250  131.9202  155.0618 C.ar    1  UNL1        0.0411
     35 C         144.6805  131.0053  155.7688 C.ar    1  UNL1        0.1217
     36 N         144.9108  129.8092  154.8933 N.ar    1  UNL1       -0.1676
     37 N         144.0975  129.9850  153.6451 N.ar    1  UNL1       -0.2473
     38 C         144.0291  129.0247  152.4949 C.3     1  UNL1        0.1538
     39 C         143.3647  131.2896  153.7493 C.ar    1  UNL1        0.0967
@<TRIPOS>BOND
     1     1     2    1
     2     2     3   ar
     3     3     4   ar
     4     4     5   ar
     5     5     8    1
     6     8     9    2
     7     8    10   am
     8    10    12    1
     9    12    13    1
    10    13    14    1
    11    14    15    1
    12    15    16    1
    13    16    17    1
    14    17    18    1
    15    18    19    1
    16    18    20    1
    17     5     6   ar
    18     6     7   ar
    19     7    21    1
    20    21    22   am
    21    22    23    2
    22    22    25    1
    23    25    26   ar
    24    26    27   ar
    25    27    28   ar
    26    28    29   ar
    27    29    30   ar
    28    30    34    1
    29    34    35   ar
    30    35    36   ar
    31    36    37   ar
    32    37    38    1
    33    37    39   ar
    34    30    31   ar
    35    31    32   ar
    36    32    33   ar
    37     7     2   ar
    38    33    25   ar
    39    18    14    1
    40    33    28   ar
    41    39    34   ar
    42    10    11    1
    43    21    24    1
@<TRIPOS>MOLECULE
*****
 39 43 0 0 0
SMALL
GASTEIGER

@<TRIPOS>ATOM
      1 C         142.5226  141.4773  159.5559 C.3     1  UNL1        0.0534
      2 C         142.6710  140.2479  158.7094 C.ar    1  UNL1        0.0728
      3 N         143.1034  140.3704  157.2783 N.ar    1  UNL1       -0.2467
      4 C         143.2517  139.1410  156.4317 C.ar    1  UNL1        0.1030
      5 C         142.9677  137.7891  157.0162 C.ar    1  UNL1        0.0737
      6 C         142.5353  137.6666  158.4473 C.ar    1  UNL1        0.0219
      7 C         142.3869  138.8960  159.2939 C.ar    1  UNL1        0.0645
      8 C         143.1160  136.5598  156.1697 C.2     1  UNL1        0.2474
      9 O         144.3791  136.3317  155.3934 O.2     1  UNL1       -0.2701
     10 N         142.0013  135.5586  156.0994 N.am    1  UNL1       -0.2994
     11 H         141.1723  135.7083  156.6090 H       1  UNL1        0.1498
     12 C         142.1496  134.3292  155.2529 C.3     1  UNL1        0.1070
     13 C         142.0526  132.9702  155.8804 C.3     1  UNL1        0.0935
     14 N         143.2078  132.4219  156.6645 N.3     1  UNL1       -0.2738
     15 C         144.2277  133.2284  157.4124 C.3     1  UNL1        0.0721
     16 C         145.1961  132.2757  158.0485 C.3     1  UNL1        0.0187
     17 C         144.7747  130.8805  157.6937 C.3     1  UNL1        0.0161
     18 C         143.5458  130.9709  156.8384 C.3     1  UNL1        0.0456
     19 C         143.6308  129.4733  156.8332 C.3     1  UNL1        0.0160
     20 C         142.3347  130.7482  155.9819 C.3     1  UNL1        0.0160
     21 N         141.9545  138.7735  160.7250 N.am    1  UNL1       -0.2794
     22 C         140.5029  138.5925  161.0570 C.2     1  UNL1        0.2526
     23 O         139.4839  138.5340  159.9580 O.2     1  UNL1       -0.2697
     24 H         142.6234  138.8119  161.4463 H       1  UNL1        0.1552
     25 C         140.0705  138.4700  162.4881 C.ar    1  UNL1        0.0921
     26 C         138.8527  137.7471  162.9824 C.ar    1  UNL1        0.1265
     27 N         138.8096  137.8792  164.4759 N.ar    1  UNL1       -0.1633
     28 N         140.0008  138.6838  164.9047 N.ar    1  UNL1       -0.2280
     29 C         140.4765  139.1311  166.2551 C.ar    1  UNL1        0.1004
     30 C         141.7315  139.9435  166.3769 C.ar    1  UNL1        0.0223
     31 C         142.5108  140.3086  165.1483 C.ar    1  UNL1        0.0032
     32 C         142.0351  139.8613  163.7979 C.ar    1  UNL1        0.0194
     33 C         140.7801  139.0489  163.6761 C.ar    1  UNL1        0.0888
     34 C         142.2073  140.3908  167.7273 C.ar    1  UNL1        0.0411
     35 C         142.6801  139.4979  168.8359 C.ar    1  UNL1        0.1217
     36 N         143.0588  140.3648  169.9999 N.ar    1  UNL1       -0.1676
     37 N         142.8200  141.7937  169.6107 N.ar    1  UNL1       -0.2473
     38 C         143.0645  142.9954  170.4744 C.3     1  UNL1        0.1538
     39 C         142.2937  141.8097  168.2062 C.ar    1  UNL1        0.0967
@<TRIPOS>BOND
     1     1     2    1
     2     2     3   ar
     3     3     4   ar
     4     4     5   ar
     5     5     8    1
     6     8     9    2
     7     8    10   am
     8    10    12    1
     9    12    13    1
    10    13    14    1
    11    14    15    1
    12    15    16    1
    13    16    17    1
    14    17    18    1
    15    18    19    1
    16    18    20    1
    17     5     6   ar
    18     6     7   ar
    19     7    21    1
    20    21    22   am
    21    22    23    2
    22    22    25    1
    23    25    26   ar
    24    26    27   ar
    25    27    28   ar
    26    28    29   ar
    27    29    30   ar
    28    30    34    1
    29    34    35   ar
    30    35    36   ar
    31    36    37   ar
    32    37    38    1
    33    37    39   ar
    34    30    31   ar
    35    31    32   ar
    36    32    33   ar
    37     7     2   ar
    38    33    25   ar
    39    18    14    1
    40    33    28   ar
    41    39    34   ar
    42    10    11    1
    43    21    24    1
@<TRIPOS>MOLECULE
*****
 39 43 0 0 0
SMALL
GASTEIGER

@<TRIPOS>ATOM
      1 C         143.2076  140.6248  158.2579 C.3     1  UNL1        0.0534
      2 C         143.2848  139.2688  157.6213 C.ar    1  UNL1        0.0728
      3 N         144.0840  139.0735  156.3671 N.ar    1  UNL1       -0.2467
      4 C         144.1612  137.7175  155.7305 C.ar    1  UNL1        0.1030
      5 C         143.4392  136.5568  156.3480 C.ar    1  UNL1        0.0737
      6 C         142.6399  136.7521  157.6022 C.ar    1  UNL1        0.0219
      7 C         142.5627  138.1081  158.2388 C.ar    1  UNL1        0.0645
      8 C         143.5164  135.2008  155.7114 C.2     1  UNL1        0.2474
      9 O         142.9806  134.9911  154.3261 O.2     1  UNL1       -0.2701
     10 N         144.1293  134.0546  156.4601 N.am    1  UNL1       -0.2994
     11 H         144.4809  134.1923  157.3693 H       1  UNL1        0.1498
     12 C         144.2065  132.6986  155.8234 C.3     1  UNL1        0.1070
     13 C         143.4487  131.5476  156.4159 C.3     1  UNL1        0.0935
     14 N         142.2330  131.0121  155.7194 N.3     1  UNL1       -0.2738
     15 C         141.2210  131.8219  154.9644 C.3     1  UNL1        0.0721
     16 C         140.1783  130.8829  154.4340 C.3     1  UNL1        0.0187
     17 C         140.5459  129.4928  154.8612 C.3     1  UNL1        0.0161
     18 C         141.8158  129.5726  155.6556 C.3     1  UNL1        0.0456
     19 C         141.6571  128.0849  155.7626 C.3     1  UNL1        0.0160
     20 C         143.0525  129.3414  156.4724 C.3     1  UNL1        0.0160
     21 N         141.7634  138.3035  159.4930 N.am    1  UNL1       -0.2794
     22 C         142.3894  138.0385  160.8302 C.2     1  UNL1        0.2526
     23 O         143.8146  137.5783  160.9131 O.2     1  UNL1       -0.2697
     24 H         140.8280  138.6055  159.4386 H       1  UNL1        0.1552
     25 C         141.5901  138.2339  162.0844 C.ar    1  UNL1        0.0921
     26 C         140.2131  137.6991  162.3446 C.ar    1  UNL1        0.1265
     27 N         139.7995  138.1330  163.7196 N.ar    1  UNL1       -0.1633
     28 N         140.9210  138.9360  164.3093 N.ar    1  UNL1       -0.2280
     29 C         141.0774  139.6184  165.6358 C.ar    1  UNL1        0.1004
     30 C         142.3405  140.3632  165.9517 C.ar    1  UNL1        0.0223
     31 C         143.4471  140.4255  164.9411 C.ar    1  UNL1        0.0032
     32 C         143.2907  139.7431  163.6145 C.ar    1  UNL1        0.0194
     33 C         142.0276  138.9983  163.2986 C.ar    1  UNL1        0.0888
     34 C         142.4969  141.0457  167.2783 C.ar    1  UNL1        0.0411
     35 C         143.2919  142.2902  167.5413 C.ar    1  UNL1        0.1217
     36 N         143.1722  142.6171  169.0003 N.ar    1  UNL1       -0.1676
     37 N         142.3031  141.5746  169.6391 N.ar    1  UNL1       -0.2473
     38 C         141.9189  141.5140  171.0878 C.3     1  UNL1        0.1538
     39 C         141.8858  140.6035  168.5749 C.ar    1  UNL1        0.0967
@<TRIPOS>BOND
     1     1     2    1
     2     2     3   ar
     3     3     4   ar
     4     4     5   ar
     5     5     8    1
     6     8     9    2
     7     8    10   am
     8    10    12    1
     9    12    13    1
    10    13    14    1
    11    14    15    1
    12    15    16    1
    13    16    17    1
    14    17    18    1
    15    18    19    1
    16    18    20    1
    17     5     6   ar
    18     6     7   ar
    19     7    21    1
    20    21    22   am
    21    22    23    2
    22    22    25    1
    23    25    26   ar
    24    26    27   ar
    25    27    28   ar
    26    28    29   ar
    27    29    30   ar
    28    30    34    1
    29    34    35   ar
    30    35    36   ar
    31    36    37   ar
    32    37    38    1
    33    37    39   ar
    34    30    31   ar
    35    31    32   ar
    36    32    33   ar
    37     7     2   ar
    38    33    25   ar
    39    18    14    1
    40    33    28   ar
    41    39    34   ar
    42    10    11    1
    43    21    24    1
@<TRIPOS>MOLECULE
*****
 39 43 0 0 0
SMALL
GASTEIGER

@<TRIPOS>ATOM
      1 C         140.5252  145.5867  158.4314 C.3     1  UNL1        0.0534
      2 C         140.2632  145.0963  159.8246 C.ar    1  UNL1        0.0728
      3 N         139.6958  146.0287  160.8535 N.ar    1  UNL1       -0.2467
      4 C         139.4338  145.5384  162.2467 C.ar    1  UNL1        0.1030
      5 C         139.7392  144.1157  162.6110 C.ar    1  UNL1        0.0737
      6 C         140.3066  143.1833  161.5820 C.ar    1  UNL1        0.0219
      7 C         140.5686  143.6737  160.1888 C.ar    1  UNL1        0.0645
      8 C         139.4772  143.6254  164.0041 C.2     1  UNL1        0.2474
      9 O         138.0955  143.7108  164.5818 O.2     1  UNL1       -0.2701
     10 N         140.5968  143.0497  164.8196 N.am    1  UNL1       -0.2994
     11 H         141.5037  142.9937  164.4404 H       1  UNL1        0.1498
     12 C         140.3348  142.5594  166.2127 C.3     1  UNL1        0.1070
     13 C         139.7585  141.1918  166.4306 C.3     1  UNL1        0.0935
     14 N         140.4681  139.9845  165.8931 N.3     1  UNL1       -0.2738
     15 C         141.9544  139.8003  165.8086 C.3     1  UNL1        0.0721
     16 C         142.2208  138.4513  165.2090 C.3     1  UNL1        0.0187
     17 C         140.8993  137.8019  164.9231 C.3     1  UNL1        0.0161
     18 C         139.8161  138.7494  165.3458 C.3     1  UNL1        0.0456
     19 C         138.8974  137.6651  164.8659 C.3     1  UNL1        0.0160
     20 C         138.5408  139.4703  165.6683 C.3     1  UNL1        0.0160
     21 N         141.1360  142.7413  159.1599 N.am    1  UNL1       -0.2794
     22 C         142.6223  142.6028  159.0116 C.2     1  UNL1        0.2526
     23 O         143.5410  143.3966  159.8923 O.2     1  UNL1       -0.2697
     24 H         140.5329  142.2203  158.5818 H       1  UNL1        0.1552
     25 C         143.1897  141.6704  157.9826 C.ar    1  UNL1        0.0921
     26 C         144.2052  142.0241  156.9369 C.ar    1  UNL1        0.1265
     27 N         144.4843  140.7929  156.1267 N.ar    1  UNL1       -0.1633
     28 N         143.6412  139.6784  156.6717 N.ar    1  UNL1       -0.2280
     29 C         143.4987  138.2397  156.2718 C.ar    1  UNL1        0.1004
     30 C         142.5561  137.3435  157.0188 C.ar    1  UNL1        0.0223
     31 C         141.7559  137.8858  158.1658 C.ar    1  UNL1        0.0032
     32 C         141.8984  139.3244  158.5658 C.ar    1  UNL1        0.0194
     33 C         142.8411  140.2207  157.8188 C.ar    1  UNL1        0.0888
     34 C         142.4135  135.9048  156.6188 C.ar    1  UNL1        0.0411
     35 C         141.5347  135.3770  155.5238 C.ar    1  UNL1        0.1217
     36 N         141.7029  133.8873  155.4719 N.ar    1  UNL1       -0.1676
     37 N         142.6856  133.4945  156.5349 N.ar    1  UNL1       -0.2473
     38 C         143.1480  132.0997  156.8362 C.3     1  UNL1        0.1538
     39 C         143.1248  134.7413  157.2437 C.ar    1  UNL1        0.0967
@<TRIPOS>BOND
     1     1     2    1
     2     2     3   ar
     3     3     4   ar
     4     4     5   ar
     5     5     8    1
     6     8     9    2
     7     8    10   am
     8    10    12    1
     9    12    13    1
    10    13    14    1
    11    14    15    1
    12    15    16    1
    13    16    17    1
    14    17    18    1
    15    18    19    1
    16    18    20    1
    17     5     6   ar
    18     6     7   ar
    19     7    21    1
    20    21    22   am
    21    22    23    2
    22    22    25    1
    23    25    26   ar
    24    26    27   ar
    25    27    28   ar
    26    28    29   ar
    27    29    30   ar
    28    30    34    1
    29    34    35   ar
    30    35    36   ar
    31    36    37   ar
    32    37    38    1
    33    37    39   ar
    34    30    31   ar
    35    31    32   ar
    36    32    33   ar
    37     7     2   ar
    38    33    25   ar
    39    18    14    1
    40    33    28   ar
    41    39    34   ar
    42    10    11    1
    43    21    24    1
@<TRIPOS>MOLECULE
*****
 39 43 0 0 0
SMALL
GASTEIGER

@<TRIPOS>ATOM
      1 C         139.3257  140.2048  158.8937 C.3     1  UNL1        0.0534
      2 C         139.9782  139.0983  158.1193 C.ar    1  UNL1        0.0728
      3 N         139.2316  138.4169  157.0110 N.ar    1  UNL1       -0.2467
      4 C         139.8841  137.3104  156.2365 C.ar    1  UNL1        0.1030
      5 C         141.2833  136.8852  156.5703 C.ar    1  UNL1        0.0737
      6 C         142.0300  137.5666  157.6786 C.ar    1  UNL1        0.0219
      7 C         141.3774  138.6731  158.4530 C.ar    1  UNL1        0.0645
      8 C         141.9359  135.7787  155.7958 C.2     1  UNL1        0.2474
      9 O         143.2952  135.9838  155.1956 O.2     1  UNL1       -0.2701
     10 N         141.2291  134.4672  155.6216 N.am    1  UNL1       -0.2994
     11 H         140.3370  134.3326  156.0155 H       1  UNL1        0.1498
     12 C         141.8817  133.3607  154.8471 C.3     1  UNL1        0.1070
     13 C         142.1378  132.0361  155.5027 C.3     1  UNL1        0.0935
     14 N         143.2692  131.8874  156.4763 N.3     1  UNL1       -0.2738
     15 C         144.1153  132.9996  157.0213 C.3     1  UNL1        0.0721
     16 C         145.1222  132.3999  157.9576 C.3     1  UNL1        0.0187
     17 C         144.8983  130.9171  157.9912 C.3     1  UNL1        0.0161
     18 C         143.7531  130.6003  157.0757 C.3     1  UNL1        0.0456
     19 C         144.0089  129.1852  157.5024 C.3     1  UNL1        0.0160
     20 C         142.6614  129.9877  156.2494 C.3     1  UNL1        0.0160
     21 N         142.1241  139.3545  159.5613 N.am    1  UNL1       -0.2794
     22 C         142.1381  138.7543  160.9360 C.2     1  UNL1        0.2526
     23 O         141.4055  137.4728  161.2023 O.2     1  UNL1       -0.2697
     24 H         142.6049  140.1956  159.3865 H       1  UNL1        0.1552
     25 C         142.8847  139.4356  162.0443 C.ar    1  UNL1        0.0921
     26 C         144.1834  140.1739  161.9088 C.ar    1  UNL1        0.1265
     27 N         144.5651  140.6929  163.2634 N.ar    1  UNL1       -0.1633
     28 N         143.5022  140.2754  164.2361 N.ar    1  UNL1       -0.2280
     29 C         143.3459  140.5024  165.7105 C.ar    1  UNL1        0.1004
     30 C         142.1511  139.9524  166.4315 C.ar    1  UNL1        0.0223
     31 C         141.1126  139.1754  165.6780 C.ar    1  UNL1        0.0032
     32 C         141.2689  138.9484  164.2036 C.ar    1  UNL1        0.0194
     33 C         142.4637  139.4984  163.4826 C.ar    1  UNL1        0.0888
     34 C         141.9948  140.1794  167.9060 C.ar    1  UNL1        0.0411
     35 C         142.5696  139.3237  168.9956 C.ar    1  UNL1        0.1217
     36 N         142.1662  139.9174  170.3127 N.ar    1  UNL1       -0.1676
     37 N         141.3420  141.1401  170.0371 N.ar    1  UNL1       -0.2473
     38 C         140.7311  142.0424  171.0679 C.3     1  UNL1        0.1538
     39 C         141.2361  141.3020  168.5496 C.ar    1  UNL1        0.0967
@<TRIPOS>BOND
     1     1     2    1
     2     2     3   ar
     3     3     4   ar
     4     4     5   ar
     5     5     8    1
     6     8     9    2
     7     8    10   am
     8    10    12    1
     9    12    13    1
    10    13    14    1
    11    14    15    1
    12    15    16    1
    13    16    17    1
    14    17    18    1
    15    18    19    1
    16    18    20    1
    17     5     6   ar
    18     6     7   ar
    19     7    21    1
    20    21    22   am
    21    22    23    2
    22    22    25    1
    23    25    26   ar
    24    26    27   ar
    25    27    28   ar
    26    28    29   ar
    27    29    30   ar
    28    30    34    1
    29    34    35   ar
    30    35    36   ar
    31    36    37   ar
    32    37    38    1
    33    37    39   ar
    34    30    31   ar
    35    31    32   ar
    36    32    33   ar
    37     7     2   ar
    38    33    25   ar
    39    18    14    1
    40    33    28   ar
    41    39    34   ar
    42    10    11    1
    43    21    24    1
@<TRIPOS>MOLECULE
*****
 39 43 0 0 0
SMALL
GASTEIGER

@<TRIPOS>ATOM
      1 C         140.1172  144.5367  157.0808 C.3     1  UNL1        0.0534
      2 C         140.4473  144.4727  158.5426 C.ar    1  UNL1        0.0728
      3 N         139.9777  145.5578  159.4657 N.ar    1  UNL1       -0.2467
      4 C         140.3078  145.4939  160.9275 C.ar    1  UNL1        0.1030
      5 C         141.1075  144.3449  161.4663 C.ar    1  UNL1        0.0737
      6 C         141.5772  143.2599  160.5432 C.ar    1  UNL1        0.0219
      7 C         141.2471  143.3238  159.0814 C.ar    1  UNL1        0.0645
      8 C         141.4377  144.2810  162.9281 C.2     1  UNL1        0.2474
      9 O         142.2823  145.3513  163.5537 O.2     1  UNL1       -0.2701
     10 N         140.9232  143.1469  163.7643 N.am    1  UNL1       -0.2994
     11 H         140.3689  142.4445  163.3536 H       1  UNL1        0.1498
     12 C         141.2533  143.0830  165.2261 C.3     1  UNL1        0.1070
     13 C         142.6001  142.5943  165.6702 C.3     1  UNL1        0.0935
     14 N         143.2315  141.4152  164.9912 N.3     1  UNL1       -0.2738
     15 C         142.6338  140.0451  164.8669 C.3     1  UNL1        0.0721
     16 C         143.6044  139.1823  164.1161 C.3     1  UNL1        0.0187
     17 C         144.8020  140.0192  163.7766 C.3     1  UNL1        0.0161
     18 C         144.5716  141.3992  164.3174 C.3     1  UNL1        0.0456
     19 C         145.9225  141.6841  163.7310 C.3     1  UNL1        0.0160
     20 C         144.6235  142.8388  164.7356 C.3     1  UNL1        0.0160
     21 N         141.7167  142.2388  158.1583 N.am    1  UNL1       -0.2794
     22 C         143.1663  142.1485  157.7830 C.2     1  UNL1        0.2526
     23 O         144.1460  143.1433  158.3309 O.2     1  UNL1       -0.2697
     24 H         141.0736  141.5858  157.7987 H       1  UNL1        0.1552
     25 C         143.6359  141.0635  156.8599 C.ar    1  UNL1        0.0921
     26 C         144.5382  141.2431  155.6752 C.ar    1  UNL1        0.1265
     27 N         144.7456  139.8989  155.0426 N.ar    1  UNL1       -0.1633
     28 N         143.9715  138.8886  155.8363 N.ar    1  UNL1       -0.2280
     29 C         143.8025  137.4062  155.6815 C.ar    1  UNL1        0.1004
     30 C         142.9476  136.6437  156.6498 C.ar    1  UNL1        0.0223
     31 C         142.2618  137.3634  157.7729 C.ar    1  UNL1        0.0032
     32 C         142.4308  138.8458  157.9278 C.ar    1  UNL1        0.0194
     33 C         143.2856  139.6084  156.9595 C.ar    1  UNL1        0.0888
     34 C         142.7786  135.1612  156.4949 C.ar    1  UNL1        0.0411
     35 C         141.7397  134.4749  155.6584 C.ar    1  UNL1        0.1217
     36 N         141.9378  132.9944  155.7959 N.ar    1  UNL1       -0.1676
     37 N         143.0992  132.7657  156.7174 N.ar    1  UNL1       -0.2473
     38 C         143.6450  131.4321  157.1338 C.3     1  UNL1        0.1538
     39 C         143.6187  134.1049  157.1494 C.ar    1  UNL1        0.0967
@<TRIPOS>BOND
     1     1     2    1
     2     2     3   ar
     3     3     4   ar
     4     4     5   ar
     5     5     8    1
     6     8     9    2
     7     8    10   am
     8    10    12    1
     9    12    13    1
    10    13    14    1
    11    14    15    1
    12    15    16    1
    13    16    17    1
    14    17    18    1
    15    18    19    1
    16    18    20    1
    17     5     6   ar
    18     6     7   ar
    19     7    21    1
    20    21    22   am
    21    22    23    2
    22    22    25    1
    23    25    26   ar
    24    26    27   ar
    25    27    28   ar
    26    28    29   ar
    27    29    30   ar
    28    30    34    1
    29    34    35   ar
    30    35    36   ar
    31    36    37   ar
    32    37    38    1
    33    37    39   ar
    34    30    31   ar
    35    31    32   ar
    36    32    33   ar
    37     7     2   ar
    38    33    25   ar
    39    18    14    1
    40    33    28   ar
    41    39    34   ar
    42    10    11    1
    43    21    24    1
@<TRIPOS>MOLECULE
*****
 39 43 0 0 0
SMALL
GASTEIGER

@<TRIPOS>ATOM
      1 C         140.9798  145.8672  157.8696 C.3     1  UNL1        0.0534
      2 C         140.0144  144.7719  157.5254 C.ar    1  UNL1        0.0728
      3 N         139.4511  144.6771  156.1384 N.ar    1  UNL1       -0.2467
      4 C         138.4857  143.5819  155.7942 C.ar    1  UNL1        0.1030
      5 C         138.0837  142.5813  156.8369 C.ar    1  UNL1        0.0737
      6 C         138.6471  142.6761  158.2239 C.ar    1  UNL1        0.0219
      7 C         139.6124  143.7714  158.5681 C.ar    1  UNL1        0.0645
      8 C         137.1184  141.4861  156.4927 C.2     1  UNL1        0.2474
      9 O         137.5597  140.0534  156.5455 O.2     1  UNL1       -0.2701
     10 N         135.7118  141.8235  156.0957 N.am    1  UNL1       -0.2994
     11 H         135.4222  142.7638  156.0610 H       1  UNL1        0.1498
     12 C         134.7464  140.7282  155.7515 C.3     1  UNL1        0.1070
     13 C         133.2863  141.0358  155.5993 C.3     1  UNL1        0.0935
     14 N         132.2705  140.2602  156.3846 N.3     1  UNL1       -0.2738
     15 C         132.5651  139.1783  157.3810 C.3     1  UNL1        0.0721
     16 C         131.2585  138.6798  157.9236 C.3     1  UNL1        0.0187
     17 C         130.1565  139.4536  157.2627 C.3     1  UNL1        0.0161
     18 C         130.7820  140.4303  156.3115 C.3     1  UNL1        0.0456
     19 C         129.3622  140.8217  156.0271 C.3     1  UNL1        0.0160
     20 C         131.1107  141.4889  155.3009 C.3     1  UNL1        0.0160
     21 N         140.1757  143.8661  159.9550 N.am    1  UNL1       -0.2794
     22 C         141.4260  143.1168  160.3096 C.2     1  UNL1        0.2526
     23 O         142.1127  142.2729  159.2771 O.2     1  UNL1       -0.2697
     24 H         139.7250  144.4201  160.6326 H       1  UNL1        0.1552
     25 C         141.9894  143.2116  161.6965 C.ar    1  UNL1        0.0921
     26 C         143.2489  143.9250  162.0897 C.ar    1  UNL1        0.1265
     27 N         143.4300  143.7639  163.5700 N.ar    1  UNL1       -0.1633
     28 N         142.2824  142.9509  164.0917 N.ar    1  UNL1       -0.2280
     29 C         141.9331  142.4774  165.4714 C.ar    1  UNL1        0.1004
     30 C         140.6935  141.6626  165.6933 C.ar    1  UNL1        0.0223
     31 C         139.8031  141.3212  164.5354 C.ar    1  UNL1        0.0032
     32 C         140.1524  141.7948  163.1556 C.ar    1  UNL1        0.0194
     33 C         141.3920  142.6096  162.9338 C.ar    1  UNL1        0.0888
     34 C         140.3442  141.1890  167.0731 C.ar    1  UNL1        0.0411
     35 C         139.5537  139.9594  167.4095 C.ar    1  UNL1        0.1217
     36 N         139.4450  139.8724  168.9030 N.ar    1  UNL1       -0.1676
     37 N         140.1684  141.0483  169.4897 N.ar    1  UNL1       -0.2473
     38 C         140.3110  141.3563  170.9507 C.3     1  UNL1        0.1538
     39 C         140.7241  141.8619  168.3587 C.ar    1  UNL1        0.0967
@<TRIPOS>BOND
     1     1     2    1
     2     2     3   ar
     3     3     4   ar
     4     4     5   ar
     5     5     8    1
     6     8     9    2
     7     8    10   am
     8    10    12    1
     9    12    13    1
    10    13    14    1
    11    14    15    1
    12    15    16    1
    13    16    17    1
    14    17    18    1
    15    18    19    1
    16    18    20    1
    17     5     6   ar
    18     6     7   ar
    19     7    21    1
    20    21    22   am
    21    22    23    2
    22    22    25    1
    23    25    26   ar
    24    26    27   ar
    25    27    28   ar
    26    28    29   ar
    27    29    30   ar
    28    30    34    1
    29    34    35   ar
    30    35    36   ar
    31    36    37   ar
    32    37    38    1
    33    37    39   ar
    34    30    31   ar
    35    31    32   ar
    36    32    33   ar
    37     7     2   ar
    38    33    25   ar
    39    18    14    1
    40    33    28   ar
    41    39    34   ar
    42    10    11    1
    43    21    24    1
@<TRIPOS>MOLECULE
*****
 39 43 0 0 0
SMALL
GASTEIGER

@<TRIPOS>ATOM
      1 C         144.2003  140.7817  156.5734 C.3     1  UNL1        0.0534
      2 C         143.8511  139.3230  156.5566 C.ar    1  UNL1        0.0728
      3 N         144.4208  138.4276  155.4965 N.ar    1  UNL1       -0.2467
      4 C         144.0717  136.9689  155.4797 C.ar    1  UNL1        0.1030
      5 C         143.1529  136.4055  156.5229 C.ar    1  UNL1        0.0737
      6 C         142.5831  137.3009  157.5829 C.ar    1  UNL1        0.0219
      7 C         142.9323  138.7596  157.5998 C.ar    1  UNL1        0.0645
      8 C         142.8037  134.9468  156.5060 C.2     1  UNL1        0.2474
      9 O         143.3940  134.0226  157.5294 O.2     1  UNL1       -0.2701
     10 N         141.8643  134.4125  155.4659 N.am    1  UNL1       -0.2994
     11 H         141.4769  135.0192  154.7942 H       1  UNL1        0.1498
     12 C         141.5152  132.9538  155.4490 C.3     1  UNL1        0.1070
     13 C         142.2880  132.0076  154.5788 C.3     1  UNL1        0.0935
     14 N         143.1261  130.9305  155.2014 N.3     1  UNL1       -0.2738
     15 C         143.1809  130.5890  156.6609 C.3     1  UNL1        0.0721
     16 C         144.1452  129.4533  156.8353 C.3     1  UNL1        0.0187
     17 C         144.6863  129.0930  155.4835 C.3     1  UNL1        0.0161
     18 C         144.0565  130.0059  154.4737 C.3     1  UNL1        0.0456
     19 C         144.8917  129.2386  153.4920 C.3     1  UNL1        0.0160
     20 C         143.6012  130.7585  153.2586 C.3     1  UNL1        0.0160
     21 N         142.3626  139.6550  158.6599 N.am    1  UNL1       -0.2794
     22 C         143.0265  139.7448  160.0020 C.2     1  UNL1        0.2526
     23 O         144.2599  138.9393  160.2840 O.2     1  UNL1       -0.2697
     24 H         141.5530  140.1837  158.4748 H       1  UNL1        0.1552
     25 C         142.4568  140.6402  161.0621 C.ar    1  UNL1        0.0921
     26 C         142.4504  142.1400  161.0395 C.ar    1  UNL1        0.1265
     27 N         141.7831  142.6196  162.2943 N.ar    1  UNL1       -0.1633
     28 N         141.3771  141.4163  163.0925 N.ar    1  UNL1       -0.2280
     29 C         140.6820  141.2765  164.4143 C.ar    1  UNL1        0.1004
     30 C         140.4033  139.9133  164.9746 C.ar    1  UNL1        0.0223
     31 C         140.8196  138.6899  164.2130 C.ar    1  UNL1        0.0032
     32 C         141.5147  138.8297  162.8912 C.ar    1  UNL1        0.0194
     33 C         141.7934  140.1929  162.3309 C.ar    1  UNL1        0.0888
     34 C         139.7082  139.7734  166.2965 C.ar    1  UNL1        0.0411
     35 C         138.4555  138.9900  166.5554 C.ar    1  UNL1        0.1217
     36 N         138.1169  139.1248  168.0104 N.ar    1  UNL1       -0.1676
     37 N         139.1603  139.9916  168.6508 N.ar    1  UNL1       -0.2473
     38 C         139.2113  140.3879  170.0966 C.3     1  UNL1        0.1538
     39 C         140.1438  140.3924  167.5915 C.ar    1  UNL1        0.0967
@<TRIPOS>BOND
     1     1     2    1
     2     2     3   ar
     3     3     4   ar
     4     4     5   ar
     5     5     8    1
     6     8     9    2
     7     8    10   am
     8    10    12    1
     9    12    13    1
    10    13    14    1
    11    14    15    1
    12    15    16    1
    13    16    17    1
    14    17    18    1
    15    18    19    1
    16    18    20    1
    17     5     6   ar
    18     6     7   ar
    19     7    21    1
    20    21    22   am
    21    22    23    2
    22    22    25    1
    23    25    26   ar
    24    26    27   ar
    25    27    28   ar
    26    28    29   ar
    27    29    30   ar
    28    30    34    1
    29    34    35   ar
    30    35    36   ar
    31    36    37   ar
    32    37    38    1
    33    37    39   ar
    34    30    31   ar
    35    31    32   ar
    36    32    33   ar
    37     7     2   ar
    38    33    25   ar
    39    18    14    1
    40    33    28   ar
    41    39    34   ar
    42    10    11    1
    43    21    24    1
@<TRIPOS>MOLECULE
*****
 39 43 0 0 0
SMALL
GASTEIGER

@<TRIPOS>ATOM
      1 C         143.1893  140.4090  157.1186 C.3     1  UNL1        0.0534
      2 C         143.2254  138.9234  156.9145 C.ar    1  UNL1        0.0728
      3 N         144.1169  138.3323  155.8629 N.ar    1  UNL1       -0.2467
      4 C         144.1530  136.8467  155.6587 C.ar    1  UNL1        0.1030
      5 C         143.2977  135.9521  156.5061 C.ar    1  UNL1        0.0737
      6 C         142.4062  136.5432  157.5577 C.ar    1  UNL1        0.0219
      7 C         142.3701  138.0288  157.7619 C.ar    1  UNL1        0.0645
      8 C         143.3338  134.4666  156.3019 C.2     1  UNL1        0.2474
      9 O         143.6523  133.5589  157.4529 O.2     1  UNL1       -0.2701
     10 N         143.0514  133.8887  154.9468 N.am    1  UNL1       -0.2994
     11 H         142.8424  134.4844  154.1914 H       1  UNL1        0.1498
     12 C         143.0875  132.4031  154.7426 C.3     1  UNL1        0.1070
     13 C         141.8622  131.5796  155.0076 C.3     1  UNL1        0.0935
     14 N         141.9975  130.1808  155.5321 N.3     1  UNL1       -0.2738
     15 C         143.1832  129.6242  156.2632 C.3     1  UNL1        0.0721
     16 C         142.8894  128.1924  156.6006 C.3     1  UNL1        0.0187
     17 C         141.5222  127.8642  156.0780 C.3     1  UNL1        0.0161
     18 C         140.9710  129.0931  155.4177 C.3     1  UNL1        0.0456
     19 C         139.7771  128.2242  155.1537 C.3     1  UNL1        0.0160
     20 C         140.1702  130.1403  154.7022 C.3     1  UNL1        0.0160
     21 N         141.4786  138.6199  158.8135 N.am    1  UNL1       -0.2794
     22 C         139.9924  138.6410  158.6115 C.2     1  UNL1        0.2526
     23 O         139.3977  138.0711  157.3580 O.2     1  UNL1       -0.2697
     24 H         141.8690  138.9940  159.6362 H       1  UNL1        0.1552
     25 C         139.1009  139.2321  159.6631 C.ar    1  UNL1        0.0921
     26 C         137.8589  140.0360  159.4160 C.ar    1  UNL1        0.1265
     27 N         137.2853  140.4238  160.7466 N.ar    1  UNL1       -0.1633
     28 N         138.1729  139.8596  161.8162 N.ar    1  UNL1       -0.2280
     29 C         138.1043  139.9213  163.3133 C.ar    1  UNL1        0.1004
     30 C         139.1577  139.2464  164.1408 C.ar    1  UNL1        0.0223
     31 C         140.2798  138.5099  163.4711 C.ar    1  UNL1        0.0032
     32 C         140.3484  138.4482  161.9740 C.ar    1  UNL1        0.0194
     33 C         139.2950  139.1230  161.1465 C.ar    1  UNL1        0.0888
     34 C         139.0892  139.3081  165.6380 C.ar    1  UNL1        0.0411
     35 C         137.9364  138.8606  166.4870 C.ar    1  UNL1        0.1217
     36 N         138.2961  139.1040  167.9227 N.ar    1  UNL1       -0.1676
     37 N         139.6713  139.7021  167.9610 N.ar    1  UNL1       -0.2473
     38 C         140.4241  140.1034  169.1948 C.3     1  UNL1        0.1538
     39 C         140.1614  139.8282  166.5490 C.ar    1  UNL1        0.0967
@<TRIPOS>BOND
     1     1     2    1
     2     2     3   ar
     3     3     4   ar
     4     4     5   ar
     5     5     8    1
     6     8     9    2
     7     8    10   am
     8    10    12    1
     9    12    13    1
    10    13    14    1
    11    14    15    1
    12    15    16    1
    13    16    17    1
    14    17    18    1
    15    18    19    1
    16    18    20    1
    17     5     6   ar
    18     6     7   ar
    19     7    21    1
    20    21    22   am
    21    22    23    2
    22    22    25    1
    23    25    26   ar
    24    26    27   ar
    25    27    28   ar
    26    28    29   ar
    27    29    30   ar
    28    30    34    1
    29    34    35   ar
    30    35    36   ar
    31    36    37   ar
    32    37    38    1
    33    37    39   ar
    34    30    31   ar
    35    31    32   ar
    36    32    33   ar
    37     7     2   ar
    38    33    25   ar
    39    18    14    1
    40    33    28   ar
    41    39    34   ar
    42    10    11    1
    43    21    24    1
