@<TRIPOS>MOLECULE
*****
 32 36 0 0 0
SMALL
GASTEIGER

@<TRIPOS>ATOM
      1 C         140.8659  141.5020  168.2398 C.3     1  UNL1        0.2376
      2 N         139.6410  141.8686  169.0243 N.2     1  UNL1       -0.0594
      3 C         140.0780  142.6511  170.2271 C.2     1  UNL1        0.3318
      4 N         139.1780  143.2172  171.2853 N.pl3   1  UNL1       -0.2452
      5 C         141.5728  142.7682  170.1860 C.ar    1  UNL1        0.1692
      6 N         142.7667  143.3242  170.9039 N.ar    1  UNL1       -0.2355
      7 C         143.9915  142.9577  170.1194 C.ar    1  UNL1        0.0887
      8 C         145.4051  143.3115  170.4752 C.3     1  UNL1        0.0594
      9 S         143.5546  142.1751  168.9166 S.2     1  UNL1       -0.0702
     10 C         142.0597  142.0580  168.9577 C.ar    1  UNL1        0.0851
     11 H         138.2041  143.0869  171.2244 H       1  UNL1        0.2885
     12 H         139.5613  143.7190  172.0406 H       1  UNL1        0.2885
     13 C         143.9252  139.9875  165.3079 C.ar    1  UNL1        0.1387
     14 C         143.4790  141.4187  165.2541 C.ar    1  UNL1        0.0367
     15 C         142.4592  141.9235  166.2314 C.ar    1  UNL1        0.0035
     16 C         141.8856  140.9972  167.2625 C.ar    1  UNL1        0.0304
     17 C         142.3318  139.5661  167.3162 C.ar    1  UNL1        0.0035
     18 C         143.3516  139.0612  166.3389 C.ar    1  UNL1        0.0367
     19 C         144.5550  139.2264  162.9050 C.3     1  UNL1        0.2525
     20 O         144.9450  139.4826  164.3306 O.3     1  UNL1       -0.4714
     21 C         139.8851  140.8405  167.3176 C.ar    1  UNL1        0.0302
     22 C         139.1048  139.6472  167.7835 C.ar    1  UNL1        0.0004
     23 C         138.1240  138.9857  166.8613 C.ar    1  UNL1       -0.0002
     24 C         137.9237  139.5174  165.4731 C.ar    1  UNL1        0.0001
     25 C         138.7040  140.7106  165.0071 C.ar    1  UNL1        0.0028
     26 C         139.6848  141.3722  165.9293 C.ar    1  UNL1        0.0005
     27 C         138.5037  141.2424  163.6189 C.ar    1  UNL1        0.0384
     28 C         137.8452  142.5744  163.4137 C.ar    1  UNL1        0.1022
     29 N         137.6448  143.1060  162.0254 N.ar    1  UNL1       -0.2224
     30 C         138.1030  142.3056  160.8425 C.ar    1  UNL1        0.1989
     31 N         138.7615  140.9736  161.0476 N.ar    1  UNL1       -0.2224
     32 C         138.9619  140.4419  162.4359 C.ar    1  UNL1        0.1022
@<TRIPOS>BOND
     1    19    20    1
     2    20    13    1
     3    13    14   ar
     4    14    15   ar
     5    15    16   ar
     6    16     1    1
     7     1    21    1
     8    21    22   ar
     9    22    23   ar
    10    23    24   ar
    11    24    25   ar
    12    25    27    1
    13    27    28   ar
    14    28    29   ar
    15    29    30   ar
    16    30    31   ar
    17    31    32   ar
    18    25    26   ar
    19     1     2    1
    20     2     3    2
    21     3     4    1
    22     3     5    1
    23     5     6   ar
    24     6     7   ar
    25     7     8    1
    26     7     9   ar
    27     9    10   ar
    28    16    17   ar
    29    17    18   ar
    30    18    13   ar
    31    10     1    1
    32    26    21   ar
    33    10     5   ar
    34    32    27   ar
    35     4    11    1
    36     4    12    1
@<TRIPOS>MOLECULE
*****
 32 36 0 0 0
SMALL
GASTEIGER

@<TRIPOS>ATOM
      1 C         140.6723  140.5456  168.2418 C.3     1  UNL1        0.2376
      2 N         139.8907  139.5840  169.0872 N.2     1  UNL1       -0.0594
      3 C         140.1660  139.9028  170.5269 C.2     1  UNL1        0.3318
      4 N         139.5906  139.1884  171.7137 N.pl3   1  UNL1       -0.2452
      5 C         141.1177  141.0614  170.5713 C.ar    1  UNL1        0.1692
      6 N         141.8760  141.9745  171.4885 N.ar    1  UNL1       -0.2355
      7 C         142.6575  142.9361  170.6432 C.ar    1  UNL1        0.0887
      8 C         143.5565  144.0252  171.1488 C.3     1  UNL1        0.0594
      9 S         142.3822  142.6173  169.2035 S.2     1  UNL1       -0.0702
     10 C         141.4306  141.4587  169.1591 C.ar    1  UNL1        0.0851
     11 H         138.9708  138.4350  171.5818 H       1  UNL1        0.2885
     12 H         139.8328  139.4729  172.6245 H       1  UNL1        0.2885
     13 C         142.6267  142.9634  164.9885 C.ar    1  UNL1        0.1387
     14 C         143.4045  141.8962  165.7001 C.ar    1  UNL1        0.0367
     15 C         142.7530  141.0903  166.7845 C.ar    1  UNL1        0.0035
     16 C         141.3238  141.3516  167.1574 C.ar    1  UNL1        0.0304
     17 C         140.5460  142.4187  166.4459 C.ar    1  UNL1        0.0035
     18 C         141.1975  143.2246  165.3614 C.ar    1  UNL1        0.0367
     19 C         142.7704  145.1439  163.5832 C.3     1  UNL1        0.2525
     20 O         143.2782  143.7694  163.9041 O.3     1  UNL1       -0.4714
     21 C         140.0502  139.8010  167.0979 C.ar    1  UNL1        0.0302
     22 C         138.6116  139.3825  167.1693 C.ar    1  UNL1        0.0004
     23 C         137.9895  138.6379  166.0254 C.ar    1  UNL1       -0.0002
     24 C         138.8060  138.3119  164.8101 C.ar    1  UNL1        0.0001
     25 C         140.2446  138.7304  164.7387 C.ar    1  UNL1        0.0028
     26 C         140.8667  139.4750  165.8826 C.ar    1  UNL1        0.0005
     27 C         141.0612  138.4044  163.5234 C.ar    1  UNL1        0.0384
     28 C         140.3801  138.0255  162.2418 C.ar    1  UNL1        0.1022
     29 N         141.1968  137.6994  161.0265 N.ar    1  UNL1       -0.2224
     30 C         142.6943  137.7523  161.0929 C.ar    1  UNL1        0.1989
     31 N         143.3754  138.1312  162.3745 N.ar    1  UNL1       -0.2224
     32 C         142.5588  138.4573  163.5898 C.ar    1  UNL1        0.1022
@<TRIPOS>BOND
     1    19    20    1
     2    20    13    1
     3    13    14   ar
     4    14    15   ar
     5    15    16   ar
     6    16     1    1
     7     1    21    1
     8    21    22   ar
     9    22    23   ar
    10    23    24   ar
    11    24    25   ar
    12    25    27    1
    13    27    28   ar
    14    28    29   ar
    15    29    30   ar
    16    30    31   ar
    17    31    32   ar
    18    25    26   ar
    19     1     2    1
    20     2     3    2
    21     3     4    1
    22     3     5    1
    23     5     6   ar
    24     6     7   ar
    25     7     8    1
    26     7     9   ar
    27     9    10   ar
    28    16    17   ar
    29    17    18   ar
    30    18    13   ar
    31    10     1    1
    32    26    21   ar
    33    10     5   ar
    34    32    27   ar
    35     4    11    1
    36     4    12    1
@<TRIPOS>MOLECULE
*****
 32 36 0 0 0
SMALL
GASTEIGER

@<TRIPOS>ATOM
      1 C         141.6952  140.9038  167.8540 C.3     1  UNL1        0.2376
      2 N         142.9609  140.6914  168.6307 N.2     1  UNL1       -0.0594
      3 C         142.5910  140.1554  169.9820 C.2     1  UNL1        0.3318
      4 N         143.5475  139.8006  171.0816 N.pl3   1  UNL1       -0.2452
      5 C         141.0969  140.0365  170.0404 C.ar    1  UNL1        0.1692
      6 N         139.9449  139.6318  170.9118 N.ar    1  UNL1       -0.2355
      7 C         138.6794  139.8442  170.1351 C.ar    1  UNL1        0.0887
      8 C         137.2882  139.5689  170.6239 C.3     1  UNL1        0.0594
      9 S         139.0491  140.3802  168.7838 S.2     1  UNL1       -0.0702
     10 C         140.5433  140.4990  168.7253 C.ar    1  UNL1        0.0851
     11 H         144.5161  139.9142  170.9473 H       1  UNL1        0.2885
     12 H         143.2066  139.4541  171.9378 H       1  UNL1        0.2885
     13 C         138.4804  141.8355  164.8462 C.ar    1  UNL1        0.1387
     14 C         138.8417  140.4096  165.1406 C.ar    1  UNL1        0.0367
     15 C         139.9133  140.0990  166.1432 C.ar    1  UNL1        0.0035
     16 C         140.6236  141.2143  166.8514 C.ar    1  UNL1        0.0304
     17 C         140.2624  142.6401  166.5571 C.ar    1  UNL1        0.0035
     18 C         139.1908  142.9507  165.5545 C.ar    1  UNL1        0.0367
     19 C         137.7523  142.8820  162.5825 C.3     1  UNL1        0.2525
     20 O         137.4088  142.1460  163.8436 O.3     1  UNL1       -0.4714
     21 C         142.6232  141.3734  166.7731 C.ar    1  UNL1        0.0302
     22 C         143.4372  142.6176  166.9718 C.ar    1  UNL1        0.0004
     23 C         144.3652  143.0872  165.8909 C.ar    1  UNL1       -0.0002
     24 C         144.4791  142.3127  164.6114 C.ar    1  UNL1        0.0001
     25 C         143.6651  141.0686  164.4127 C.ar    1  UNL1        0.0028
     26 C         142.7371  140.5989  165.4936 C.ar    1  UNL1        0.0005
     27 C         143.7790  140.2941  163.1332 C.ar    1  UNL1        0.0384
     28 C         143.9766  141.0171  161.8339 C.ar    1  UNL1        0.1022
     29 N         144.0906  140.2425  160.5544 N.ar    1  UNL1       -0.2224
     30 C         144.0069  138.7450  160.5742 C.ar    1  UNL1        0.1989
     31 N         143.8094  138.0220  161.8735 N.ar    1  UNL1       -0.2224
     32 C         143.6954  138.7965  163.1531 C.ar    1  UNL1        0.1022
@<TRIPOS>BOND
     1    19    20    1
     2    20    13    1
     3    13    14   ar
     4    14    15   ar
     5    15    16   ar
     6    16     1    1
     7     1    21    1
     8    21    22   ar
     9    22    23   ar
    10    23    24   ar
    11    24    25   ar
    12    25    27    1
    13    27    28   ar
    14    28    29   ar
    15    29    30   ar
    16    30    31   ar
    17    31    32   ar
    18    25    26   ar
    19     1     2    1
    20     2     3    2
    21     3     4    1
    22     3     5    1
    23     5     6   ar
    24     6     7   ar
    25     7     8    1
    26     7     9   ar
    27     9    10   ar
    28    16    17   ar
    29    17    18   ar
    30    18    13   ar
    31    10     1    1
    32    26    21   ar
    33    10     5   ar
    34    32    27   ar
    35     4    11    1
    36     4    12    1
@<TRIPOS>MOLECULE
*****
 32 36 0 0 0
SMALL
GASTEIGER

@<TRIPOS>ATOM
      1 C         141.2336  141.8556  167.3664 C.3     1  UNL1        0.2376
      2 N         142.0821  142.8503  168.1017 N.2     1  UNL1       -0.0594
      3 C         141.6570  142.8483  169.5403 C.2     1  UNL1        0.3318
      4 N         142.2407  143.6938  170.6332 N.pl3   1  UNL1       -0.2452
      5 C         140.5459  141.8524  169.6940 C.ar    1  UNL1        0.1692
      6 N         139.5965  141.2358  170.6781 N.ar    1  UNL1       -0.2355
      7 C         138.7481  140.2411  169.9427 C.ar    1  UNL1        0.0887
      8 C         137.6648  139.3933  170.5408 C.3     1  UNL1        0.0594
      9 S         139.1731  140.2431  168.5041 S.2     1  UNL1       -0.0702
     10 C         140.2842  141.2389  168.3504 C.ar    1  UNL1        0.0851
     11 H         142.9719  144.3218  170.4325 H       1  UNL1        0.2885
     12 H         141.8926  143.6208  171.5512 H       1  UNL1        0.2885
     13 C         139.1945  139.1396  164.4141 C.ar    1  UNL1        0.1387
     14 C         140.4751  138.7109  165.0673 C.ar    1  UNL1        0.0367
     15 C         141.1548  139.6163  166.0514 C.ar    1  UNL1        0.0035
     16 C         140.5539  140.9503  166.3823 C.ar    1  UNL1        0.0304
     17 C         139.2734  141.3790  165.7292 C.ar    1  UNL1        0.0035
     18 C         138.5937  140.4736  164.7451 C.ar    1  UNL1        0.0367
     19 C         138.1397  138.7495  162.0721 C.3     1  UNL1        0.2525
     20 O         138.5148  138.2343  163.4301 O.3     1  UNL1       -0.4714
     21 C         142.0409  142.2830  166.1766 C.ar    1  UNL1        0.0302
     22 C         143.5058  141.9670  166.1115 C.ar    1  UNL1        0.0004
     23 C         144.3131  142.3944  164.9218 C.ar    1  UNL1       -0.0002
     24 C         143.6555  143.1378  163.7971 C.ar    1  UNL1        0.0001
     25 C         142.1907  143.4539  163.8622 C.ar    1  UNL1        0.0028
     26 C         141.3833  143.0265  165.0519 C.ar    1  UNL1        0.0005
     27 C         141.5331  144.1974  162.7375 C.ar    1  UNL1        0.0384
     28 C         142.1886  144.2509  161.3894 C.ar    1  UNL1        0.1022
     29 N         141.5309  144.9944  160.2647 N.ar    1  UNL1       -0.2224
     30 C         140.2179  145.6843  160.4883 C.ar    1  UNL1        0.1989
     31 N         139.5624  145.6307  161.8364 N.ar    1  UNL1       -0.2224
     32 C         140.2200  144.8872  162.9611 C.ar    1  UNL1        0.1022
@<TRIPOS>BOND
     1    19    20    1
     2    20    13    1
     3    13    14   ar
     4    14    15   ar
     5    15    16   ar
     6    16     1    1
     7     1    21    1
     8    21    22   ar
     9    22    23   ar
    10    23    24   ar
    11    24    25   ar
    12    25    27    1
    13    27    28   ar
    14    28    29   ar
    15    29    30   ar
    16    30    31   ar
    17    31    32   ar
    18    25    26   ar
    19     1     2    1
    20     2     3    2
    21     3     4    1
    22     3     5    1
    23     5     6   ar
    24     6     7   ar
    25     7     8    1
    26     7     9   ar
    27     9    10   ar
    28    16    17   ar
    29    17    18   ar
    30    18    13   ar
    31    10     1    1
    32    26    21   ar
    33    10     5   ar
    34    32    27   ar
    35     4    11    1
    36     4    12    1
@<TRIPOS>MOLECULE
*****
 32 36 0 0 0
SMALL
GASTEIGER

@<TRIPOS>ATOM
      1 C         139.1669  140.2476  165.5773 C.3     1  UNL1        0.2376
      2 N         138.1462  139.1484  165.5791 N.2     1  UNL1       -0.0594
      3 C         137.9318  138.7173  166.9997 C.2     1  UNL1        0.3318
      4 N         136.9940  137.6422  167.4629 N.pl3   1  UNL1       -0.2452
      5 C         138.8200  139.5501  167.8759 C.ar    1  UNL1        0.1692
      6 N         139.2364  139.7983  169.2954 N.ar    1  UNL1       -0.2355
      7 C         140.2570  140.8975  169.2936 C.ar    1  UNL1        0.0887
      8 C         140.9429  141.4659  170.5004 C.3     1  UNL1        0.0594
      9 S         140.4714  141.3286  167.8729 S.2     1  UNL1       -0.0702
     10 C         139.5833  140.4959  166.9968 C.ar    1  UNL1        0.0851
     11 H         136.4495  137.1483  166.8080 H       1  UNL1        0.2885
     12 H         136.9228  137.4305  168.4217 H       1  UNL1        0.2885
     13 C         142.0957  143.5331  164.6406 C.ar    1  UNL1        0.1387
     14 C         140.6381  143.8503  164.7987 C.ar    1  UNL1        0.0367
     15 C         139.6618  142.7551  165.1109 C.ar    1  UNL1        0.0035
     16 C         140.1432  141.3428  165.2650 C.ar    1  UNL1        0.0304
     17 C         141.6007  141.0256  165.1069 C.ar    1  UNL1        0.0035
     18 C         142.5770  142.1208  164.7947 C.ar    1  UNL1        0.0367
     19 C         143.6672  144.7335  162.9555 C.3     1  UNL1        0.2525
     20 O         143.0720  144.6283  164.3284 O.3     1  UNL1       -0.4714
     21 C         138.9546  140.2283  164.0925 C.ar    1  UNL1        0.0302
     22 C         137.7324  140.8660  163.5013 C.ar    1  UNL1        0.0004
     23 C         137.5200  140.8467  162.0165 C.ar    1  UNL1       -0.0002
     24 C         138.5300  140.1897  161.1230 C.ar    1  UNL1        0.0001
     25 C         139.7522  139.5520  161.7142 C.ar    1  UNL1        0.0028
     26 C         139.9645  139.5713  163.1989 C.ar    1  UNL1        0.0005
     27 C         140.7621  138.8951  160.8206 C.ar    1  UNL1        0.0384
     28 C         141.9425  138.1867  161.4164 C.ar    1  UNL1        0.1022
     29 N         142.9523  137.5297  160.5227 N.ar    1  UNL1       -0.2224
     30 C         142.7818  137.5812  159.0334 C.ar    1  UNL1        0.1989
     31 N         141.6015  138.2895  158.4376 N.ar    1  UNL1       -0.2224
     32 C         140.5916  138.9465  159.3311 C.ar    1  UNL1        0.1022
@<TRIPOS>BOND
     1    19    20    1
     2    20    13    1
     3    13    14   ar
     4    14    15   ar
     5    15    16   ar
     6    16     1    1
     7     1    21    1
     8    21    22   ar
     9    22    23   ar
    10    23    24   ar
    11    24    25   ar
    12    25    27    1
    13    27    28   ar
    14    28    29   ar
    15    29    30   ar
    16    30    31   ar
    17    31    32   ar
    18    25    26   ar
    19     1     2    1
    20     2     3    2
    21     3     4    1
    22     3     5    1
    23     5     6   ar
    24     6     7   ar
    25     7     8    1
    26     7     9   ar
    27     9    10   ar
    28    16    17   ar
    29    17    18   ar
    30    18    13   ar
    31    10     1    1
    32    26    21   ar
    33    10     5   ar
    34    32    27   ar
    35     4    11    1
    36     4    12    1
@<TRIPOS>MOLECULE
*****
 32 36 0 0 0
SMALL
GASTEIGER

@<TRIPOS>ATOM
      1 C         140.2526  140.5397  167.2879 C.3     1  UNL1        0.2376
      2 N         139.0540  139.9074  167.9313 N.2     1  UNL1       -0.0594
      3 C         139.0661  140.2668  169.3876 C.2     1  UNL1        0.3318
      4 N         138.0505  139.8458  170.4080 N.pl3   1  UNL1       -0.2452
      5 C         140.2721  141.1211  169.6442 C.ar    1  UNL1        0.1692
      6 N         141.0248  141.8712  170.7029 N.ar    1  UNL1       -0.2355
      7 C         142.2233  142.5033  170.0595 C.ar    1  UNL1        0.0887
      8 C         143.2531  143.3468  170.7510 C.3     1  UNL1        0.0594
      9 S         142.2113  142.1440  168.6032 S.2     1  UNL1       -0.0702
     10 C         141.0053  141.2897  168.3466 C.ar    1  UNL1        0.0851
     11 H         137.2893  139.2813  170.1411 H       1  UNL1        0.2885
     12 H         138.1451  140.1340  171.3446 H       1  UNL1        0.2885
     13 C         143.5187  142.0310  164.5753 C.ar    1  UNL1        0.1387
     14 C         143.5237  140.6052  165.0417 C.ar    1  UNL1        0.0367
     15 C         142.4349  140.1081  165.9459 C.ar    1  UNL1        0.0035
     16 C         141.3413  141.0368  166.3837 C.ar    1  UNL1        0.0304
     17 C         141.3363  142.4624  165.9174 C.ar    1  UNL1        0.0035
     18 C         142.4251  142.9595  165.0132 C.ar    1  UNL1        0.0367
     19 C         145.8751  141.7404  163.5203 C.3     1  UNL1        0.2525
     20 O         144.6074  142.5281  163.6712 O.3     1  UNL1       -0.4714
     21 C         139.7274  139.8935  166.0402 C.ar    1  UNL1        0.0302
     22 C         139.3753  138.4354  166.0419 C.ar    1  UNL1        0.0004
     23 C         138.8501  137.7893  164.7942 C.ar    1  UNL1       -0.0002
     24 C         138.6770  138.6012  163.5449 C.ar    1  UNL1        0.0001
     25 C         139.0291  140.0593  163.5432 C.ar    1  UNL1        0.0028
     26 C         139.5543  140.7054  164.7909 C.ar    1  UNL1        0.0005
     27 C         138.8561  140.8712  162.2939 C.ar    1  UNL1        0.0384
     28 C         137.9600  142.0741  162.2993 C.ar    1  UNL1        0.1022
     29 N         137.7870  142.8860  161.0499 N.ar    1  UNL1       -0.2224
     30 C         138.5100  142.4950  159.7952 C.ar    1  UNL1        0.1989
     31 N         139.4061  141.2921  159.7898 N.ar    1  UNL1       -0.2224
     32 C         139.5792  140.4801  161.0392 C.ar    1  UNL1        0.1022
@<TRIPOS>BOND
     1    19    20    1
     2    20    13    1
     3    13    14   ar
     4    14    15   ar
     5    15    16   ar
     6    16     1    1
     7     1    21    1
     8    21    22   ar
     9    22    23   ar
    10    23    24   ar
    11    24    25   ar
    12    25    27    1
    13    27    28   ar
    14    28    29   ar
    15    29    30   ar
    16    30    31   ar
    17    31    32   ar
    18    25    26   ar
    19     1     2    1
    20     2     3    2
    21     3     4    1
    22     3     5    1
    23     5     6   ar
    24     6     7   ar
    25     7     8    1
    26     7     9   ar
    27     9    10   ar
    28    16    17   ar
    29    17    18   ar
    30    18    13   ar
    31    10     1    1
    32    26    21   ar
    33    10     5   ar
    34    32    27   ar
    35     4    11    1
    36     4    12    1
@<TRIPOS>MOLECULE
*****
 32 36 0 0 0
SMALL
GASTEIGER

@<TRIPOS>ATOM
      1 C         139.7042  139.5845  165.6796 C.3     1  UNL1        0.2376
      2 N         138.6797  138.4894  165.6424 N.2     1  UNL1       -0.0594
      3 C         138.0487  138.3988  167.0002 C.2     1  UNL1        0.3318
      4 N         136.9721  137.4378  167.4097 N.pl3   1  UNL1       -0.2452
      5 C         138.6831  139.4378  167.8766 C.ar    1  UNL1        0.1692
      6 N         138.6852  140.0238  169.2573 N.ar    1  UNL1       -0.2355
      7 C         139.7097  141.1188  169.2945 C.ar    1  UNL1        0.0887
      8 C         140.0444  141.9732  170.4811 C.3     1  UNL1        0.0594
      9 S         140.3408  141.2095  167.9367 S.2     1  UNL1       -0.0702
     10 C         139.7063  140.1705  167.0604 C.ar    1  UNL1        0.0851
     11 H         136.6177  136.7894  166.7593 H       1  UNL1        0.2885
     12 H         136.6200  137.4556  168.3289 H       1  UNL1        0.2885
     13 C         142.9167  142.6353  164.8908 C.ar    1  UNL1        0.1387
     14 C         141.4716  143.0258  164.7945 C.ar    1  UNL1        0.0367
     15 C         140.4007  142.0089  165.0574 C.ar    1  UNL1        0.0035
     16 C         140.7750  140.6014  165.4167 C.ar    1  UNL1        0.0304
     17 C         142.2201  140.2109  165.5130 C.ar    1  UNL1        0.0035
     18 C         143.2909  141.2279  165.2501 C.ar    1  UNL1        0.0367
     19 C         143.9232  144.5081  163.3977 C.3     1  UNL1        0.2525
     20 O         143.9875  143.6522  164.6279 O.3     1  UNL1       -0.4714
     21 C         139.9260  139.2110  164.2439 C.ar    1  UNL1        0.0302
     22 C         140.6568  137.9465  163.9022 C.ar    1  UNL1        0.0004
     23 C         140.8785  137.5730  162.4665 C.ar    1  UNL1       -0.0002
     24 C         140.3695  138.4640  161.3725 C.ar    1  UNL1        0.0001
     25 C         139.6387  139.7286  161.7142 C.ar    1  UNL1        0.0028
     26 C         139.4169  140.1021  163.1499 C.ar    1  UNL1        0.0005
     27 C         139.1296  140.6197  160.6201 C.ar    1  UNL1        0.0384
     28 C         138.7295  140.0320  159.2993 C.ar    1  UNL1        0.1022
     29 N         138.2204  140.9232  158.2054 N.ar    1  UNL1       -0.2224
     30 C         138.1115  142.4019  158.4322 C.ar    1  UNL1        0.1989
     31 N         138.5116  142.9895  159.7531 N.ar    1  UNL1       -0.2224
     32 C         139.0207  142.0985  160.8471 C.ar    1  UNL1        0.1022
@<TRIPOS>BOND
     1    19    20    1
     2    20    13    1
     3    13    14   ar
     4    14    15   ar
     5    15    16   ar
     6    16     1    1
     7     1    21    1
     8    21    22   ar
     9    22    23   ar
    10    23    24   ar
    11    24    25   ar
    12    25    27    1
    13    27    28   ar
    14    28    29   ar
    15    29    30   ar
    16    30    31   ar
    17    31    32   ar
    18    25    26   ar
    19     1     2    1
    20     2     3    2
    21     3     4    1
    22     3     5    1
    23     5     6   ar
    24     6     7   ar
    25     7     8    1
    26     7     9   ar
    27     9    10   ar
    28    16    17   ar
    29    17    18   ar
    30    18    13   ar
    31    10     1    1
    32    26    21   ar
    33    10     5   ar
    34    32    27   ar
    35     4    11    1
    36     4    12    1
@<TRIPOS>MOLECULE
*****
 32 36 0 0 0
SMALL
GASTEIGER

@<TRIPOS>ATOM
      1 C         141.3603  140.3179  166.4312 C.3     1  UNL1        0.2376
      2 N         142.1072  139.1572  167.0187 N.2     1  UNL1       -0.0594
      3 C         142.3644  139.4563  168.4659 C.2     1  UNL1        0.3318
      4 N         143.0833  138.5662  169.4359 N.pl3   1  UNL1       -0.2452
      5 C         141.7765  140.8018  168.7728 C.ar    1  UNL1        0.1692
      6 N         141.5721  141.8181  169.8570 N.ar    1  UNL1       -0.2355
      7 C         140.8252  142.9786  169.2694 C.ar    1  UNL1        0.0887
      8 C         140.4087  144.2203  170.0007 C.3     1  UNL1        0.0594
      9 S         140.5680  142.6796  167.8222 S.2     1  UNL1       -0.0702
     10 C         141.1559  141.3342  167.5153 C.ar    1  UNL1        0.0851
     11 H         143.4354  137.6964  169.1380 H       1  UNL1        0.2885
     12 H         143.2031  138.8518  170.3704 H       1  UNL1        0.2885
     13 C         139.1513  143.2923  163.8771 C.ar    1  UNL1        0.1387
     14 C         138.4172  142.1333  164.4838 C.ar    1  UNL1        0.0367
     15 C         139.1535  141.1418  165.3351 C.ar    1  UNL1        0.0035
     16 C         140.6240  141.3094  165.5798 C.ar    1  UNL1        0.0304
     17 C         141.3580  142.4683  164.9733 C.ar    1  UNL1        0.0035
     18 C         140.6217  143.4598  164.1219 C.ar    1  UNL1        0.0367
     19 C         139.1632  145.3960  162.3526 C.3     1  UNL1        0.2525
     20 O         138.4150  144.2838  163.0258 O.3     1  UNL1       -0.4714
     21 C         141.4108  139.5088  165.1691 C.ar    1  UNL1        0.0302
     22 C         140.8137  138.1332  165.1357 C.ar    1  UNL1        0.0004
     23 C         140.8641  137.3242  163.8736 C.ar    1  UNL1       -0.0002
     24 C         141.5117  137.8907  162.6449 C.ar    1  UNL1        0.0001
     25 C         142.1088  139.2663  162.6783 C.ar    1  UNL1        0.0028
     26 C         142.0583  140.0754  163.9404 C.ar    1  UNL1        0.0005
     27 C         142.7564  139.8329  161.4496 C.ar    1  UNL1        0.0384
     28 C         143.3246  138.9135  160.4096 C.ar    1  UNL1        0.1022
     29 N         143.9722  139.4801  159.1809 N.ar    1  UNL1       -0.2224
     30 C         144.0515  140.9661  158.9923 C.ar    1  UNL1        0.1989
     31 N         143.4832  141.8855  160.0324 N.ar    1  UNL1       -0.2224
     32 C         142.8356  141.3189  161.2611 C.ar    1  UNL1        0.1022
@<TRIPOS>BOND
     1    19    20    1
     2    20    13    1
     3    13    14   ar
     4    14    15   ar
     5    15    16   ar
     6    16     1    1
     7     1    21    1
     8    21    22   ar
     9    22    23   ar
    10    23    24   ar
    11    24    25   ar
    12    25    27    1
    13    27    28   ar
    14    28    29   ar
    15    29    30   ar
    16    30    31   ar
    17    31    32   ar
    18    25    26   ar
    19     1     2    1
    20     2     3    2
    21     3     4    1
    22     3     5    1
    23     5     6   ar
    24     6     7   ar
    25     7     8    1
    26     7     9   ar
    27     9    10   ar
    28    16    17   ar
    29    17    18   ar
    30    18    13   ar
    31    10     1    1
    32    26    21   ar
    33    10     5   ar
    34    32    27   ar
    35     4    11    1
    36     4    12    1
@<TRIPOS>MOLECULE
*****
 32 36 0 0 0
SMALL
GASTEIGER

@<TRIPOS>ATOM
      1 C         142.1011  140.3635  166.9500 C.3     1  UNL1        0.2376
      2 N         142.8334  139.1657  167.4784 N.2     1  UNL1       -0.0594
      3 C         142.6317  139.1174  168.9640 C.2     1  UNL1        0.3318
      4 N         143.1890  138.0829  169.8962 N.pl3   1  UNL1       -0.2452
      5 C         141.7749  140.2853  169.3537 C.ar    1  UNL1        0.1692
      6 N         141.1207  140.9772  170.5128 N.ar    1  UNL1       -0.2355
      7 C         140.3885  142.1750  169.9843 C.ar    1  UNL1        0.0887
      8 C         139.5941  143.1528  170.7985 C.3     1  UNL1        0.0594
      9 S         140.5902  142.2233  168.4987 S.2     1  UNL1       -0.0702
     10 C         141.4470  141.0554  168.1090 C.ar    1  UNL1        0.0851
     11 H         143.7437  137.3501  169.5433 H       1  UNL1        0.2885
     12 H         143.0001  138.1366  170.8609 H       1  UNL1        0.2885
     13 C         140.2332  143.6673  164.5321 C.ar    1  UNL1        0.1387
     14 C         141.7031  143.6948  164.8300 C.ar    1  UNL1        0.0367
     15 C         142.3258  142.5935  165.6360 C.ar    1  UNL1        0.0035
     16 C         141.4785  141.4648  166.1440 C.ar    1  UNL1        0.0304
     17 C         140.0086  141.4372  165.8461 C.ar    1  UNL1        0.0035
     18 C         139.3860  142.5385  165.0402 C.ar    1  UNL1        0.0367
     19 C         138.2982  144.5426  163.0355 C.3     1  UNL1        0.2525
     20 O         139.6105  144.7685  163.7262 O.3     1  UNL1       -0.4714
     21 C         142.6251  139.9018  165.6225 C.ar    1  UNL1        0.0302
     22 C         144.1001  139.7180  165.4212 C.ar    1  UNL1        0.0004
     23 C         144.6241  139.2563  164.0937 C.ar    1  UNL1       -0.0002
     24 C         143.6731  138.9784  162.9675 C.ar    1  UNL1        0.0001
     25 C         142.1981  139.1622  163.1688 C.ar    1  UNL1        0.0028
     26 C         141.6741  139.6239  164.4963 C.ar    1  UNL1        0.0005
     27 C         141.2471  138.8842  162.0426 C.ar    1  UNL1        0.0384
     28 C         139.8816  138.3352  162.3322 C.ar    1  UNL1        0.1022
     29 N         138.9306  138.0573  161.2059 N.ar    1  UNL1       -0.2224
     30 C         139.3452  138.3284  159.7901 C.ar    1  UNL1        0.1989
     31 N         140.7107  138.8773  159.5005 N.ar    1  UNL1       -0.2224
     32 C         141.6618  139.1553  160.6267 C.ar    1  UNL1        0.1022
@<TRIPOS>BOND
     1    19    20    1
     2    20    13    1
     3    13    14   ar
     4    14    15   ar
     5    15    16   ar
     6    16     1    1
     7     1    21    1
     8    21    22   ar
     9    22    23   ar
    10    23    24   ar
    11    24    25   ar
    12    25    27    1
    13    27    28   ar
    14    28    29   ar
    15    29    30   ar
    16    30    31   ar
    17    31    32   ar
    18    25    26   ar
    19     1     2    1
    20     2     3    2
    21     3     4    1
    22     3     5    1
    23     5     6   ar
    24     6     7   ar
    25     7     8    1
    26     7     9   ar
    27     9    10   ar
    28    16    17   ar
    29    17    18   ar
    30    18    13   ar
    31    10     1    1
    32    26    21   ar
    33    10     5   ar
    34    32    27   ar
    35     4    11    1
    36     4    12    1
