@<TRIPOS>MOLECULE
*****
 35 38 0 0 0
SMALL
GASTEIGER

@<TRIPOS>ATOM
      1 C         139.3610  139.0062  165.1330 C.ar    1  UNL1        0.0038
      2 C         138.2646  138.1220  165.6489 C.ar    1  UNL1        0.0017
      3 C         137.7762  138.2779  167.0586 C.ar    1  UNL1        0.0191
      4 C         138.3842  139.3179  167.9523 C.ar    1  UNL1        0.0825
      5 N         137.8958  139.4737  169.3620 N.ar    1  UNL1       -0.2436
      6 C         138.5038  140.5137  170.2557 C.ar    1  UNL1        0.1045
      7 C         139.6002  141.3979  169.7397 C.ar    1  UNL1        0.0853
      8 C         140.0886  141.2421  168.3301 C.ar    1  UNL1        0.0522
      9 C         139.4806  140.2021  167.4363 C.ar    1  UNL1        0.0310
     10 C         139.9689  140.0462  166.0267 C.ar    1  UNL1        0.0028
     11 C         140.8262  138.5386  160.9039 C.ar    1  UNL1        0.0911
     12 C         139.9059  139.6689  161.2581 C.ar    1  UNL1        0.0174
     13 C         139.4175  139.8248  162.6679 C.ar    1  UNL1        0.0051
     14 C         139.8494  138.8503  163.7233 C.ar    1  UNL1        0.0460
     15 C         140.7697  137.7201  163.3690 C.ar    1  UNL1        0.2219
     16 F         141.2016  136.7456  164.4245 F       1  UNL1       -0.1832
     17 N         141.2581  137.5642  161.9594 N.ar    1  UNL1       -0.2199
     18 C         141.3146  138.3828  159.4943 C.3     1  UNL1        0.1876
     19 C         143.4894  139.7089  160.0062 C.3     1  UNL1        0.1747
     20 O         142.7283  138.7439  159.1461 O.3     1  UNL1       -0.3447
     21 C         140.2082  142.4379  170.6334 C.2     1  UNL1        0.2455
     22 N         139.8777  143.8870  170.4308 N.am    1  UNL1       -0.3252
     23 O         141.1467  142.0290  171.7297 O.2     1  UNL1       -0.2703
     24 H         139.2617  144.1555  169.7112 H       1  UNL1        0.1453
     25 H         140.2767  144.5696  171.0173 H       1  UNL1        0.1453
     26 N         141.1849  142.1262  167.8141 N.pl3   1  UNL1       -0.3292
     27 H         140.9702  143.0160  167.4516 H       1  UNL1        0.1471
     28 C         142.6085  141.6547  167.8505 C.3     1  UNL1        0.1117
     29 C         143.5718  142.2528  168.8324 C.3     1  UNL1        0.0278
     30 C         143.0686  140.5851  166.9049 C.ar    1  UNL1        0.0978
     31 C         143.1399  139.1166  167.2022 C.ar    1  UNL1        0.0383
     32 C         143.6536  138.4200  165.9771 C.ar    1  UNL1        0.0964
     33 N         143.8998  139.4581  164.9226 N.ar    1  UNL1       -0.2476
     34 C         144.4168  139.2028  163.5379 C.3     1  UNL1        0.1537
     35 N         143.5383  140.7961  165.4961 N.ar    1  UNL1       -0.1719
@<TRIPOS>BOND
     1    19    20    1
     2    20    18    1
     3    18    11    1
     4    11    12   ar
     5    12    13   ar
     6    13    14   ar
     7    14     1    1
     8     1     2   ar
     9     2     3   ar
    10     3     4   ar
    11     4     5   ar
    12     5     6   ar
    13     6     7   ar
    14     7    21    1
    15    21    22   am
    16    21    23    2
    17     7     8   ar
    18     8    26    1
    19    26    28    1
    20    28    29    1
    21    28    30    1
    22    30    31   ar
    23    31    32   ar
    24    32    33   ar
    25    33    34    1
    26    33    35   ar
    27     8     9   ar
    28     9    10   ar
    29    14    15   ar
    30    15    16    1
    31    15    17   ar
    32    17    11   ar
    33    10     1   ar
    34     9     4   ar
    35    35    30   ar
    36    22    24    1
    37    22    25    1
    38    26    27    1
@<TRIPOS>MOLECULE
*****
 35 38 0 0 0
SMALL
GASTEIGER

@<TRIPOS>ATOM
      1 C         142.7945  139.0120  164.5380 C.ar    1  UNL1        0.0038
      2 C         143.9870  138.4347  165.2413 C.ar    1  UNL1        0.0017
      3 C         144.0337  138.4090  166.7404 C.ar    1  UNL1        0.0191
      4 C         142.8881  138.9606  167.5360 C.ar    1  UNL1        0.0825
      5 N         142.9349  138.9349  169.0352 N.ar    1  UNL1       -0.2436
      6 C         141.7892  139.4865  169.8308 C.ar    1  UNL1        0.1045
      7 C         140.5967  140.0638  169.1274 C.ar    1  UNL1        0.0853
      8 C         140.5499  140.0895  167.6284 C.ar    1  UNL1        0.0522
      9 C         141.6956  139.5379  166.8327 C.ar    1  UNL1        0.0310
     10 C         141.6488  139.5636  165.3337 C.ar    1  UNL1        0.0028
     11 C         142.6540  139.0891  160.0408 C.ar    1  UNL1        0.0911
     12 C         143.4630  140.1109  160.7835 C.ar    1  UNL1        0.0174
     13 C         143.5098  140.0851  162.2826 C.ar    1  UNL1        0.0051
     14 C         142.7477  139.0377  163.0389 C.ar    1  UNL1        0.0460
     15 C         141.9387  138.0159  162.2962 C.ar    1  UNL1        0.2219
     16 F         141.1766  136.9685  163.0526 F       1  UNL1       -0.1832
     17 N         141.8919  138.0416  160.7972 N.ar    1  UNL1       -0.2199
     18 C         142.6072  139.1148  158.5418 C.3     1  UNL1        0.1876
     19 C         142.5728  136.8439  157.2801 C.3     1  UNL1        0.1747
     20 O         143.3186  138.0572  157.7510 O.3     1  UNL1       -0.3447
     21 C         139.4510  140.6154  169.9231 C.2     1  UNL1        0.2455
     22 N         139.4877  142.0353  170.4055 N.am    1  UNL1       -0.3252
     23 O         138.2687  139.7472  170.2365 O.2     1  UNL1       -0.2703
     24 H         140.2637  142.6052  170.1998 H       1  UNL1        0.1453
     25 H         138.7358  142.3974  170.9277 H       1  UNL1        0.1453
     26 N         139.3575  140.6668  166.9251 N.pl3   1  UNL1       -0.3292
     27 H         139.1805  141.6343  166.9694 H       1  UNL1        0.1471
     28 C         138.4346  139.7701  166.1542 C.3     1  UNL1        0.1117
     29 C         137.7404  138.6348  166.8465 C.3     1  UNL1        0.0278
     30 C         138.2059  140.0087  164.6911 C.ar    1  UNL1        0.0978
     31 C         137.6664  141.2662  164.0766 C.ar    1  UNL1        0.0383
     32 C         137.6036  141.0663  162.5913 C.ar    1  UNL1        0.0964
     33 N         138.1043  139.6853  162.2878 N.ar    1  UNL1       -0.2476
     34 C         138.2136  139.0666  160.9257 C.3     1  UNL1        0.1537
     35 N         138.4765  139.0316  163.5856 N.ar    1  UNL1       -0.1719
@<TRIPOS>BOND
     1    19    20    1
     2    20    18    1
     3    18    11    1
     4    11    12   ar
     5    12    13   ar
     6    13    14   ar
     7    14     1    1
     8     1     2   ar
     9     2     3   ar
    10     3     4   ar
    11     4     5   ar
    12     5     6   ar
    13     6     7   ar
    14     7    21    1
    15    21    22   am
    16    21    23    2
    17     7     8   ar
    18     8    26    1
    19    26    28    1
    20    28    29    1
    21    28    30    1
    22    30    31   ar
    23    31    32   ar
    24    32    33   ar
    25    33    34    1
    26    33    35   ar
    27     8     9   ar
    28     9    10   ar
    29    14    15   ar
    30    15    16    1
    31    15    17   ar
    32    17    11   ar
    33    10     1   ar
    34     9     4   ar
    35    35    30   ar
    36    22    24    1
    37    22    25    1
    38    26    27    1
@<TRIPOS>MOLECULE
*****
 35 38 0 0 0
SMALL
GASTEIGER

@<TRIPOS>ATOM
      1 C         138.6720  139.9989  165.4225 C.ar    1  UNL1        0.0038
      2 C         137.8892  139.1181  166.3506 C.ar    1  UNL1        0.0017
      3 C         138.2265  139.0808  167.8117 C.ar    1  UNL1        0.0191
      4 C         139.3466  139.9242  168.3447 C.ar    1  UNL1        0.0825
      5 N         139.6838  139.8869  169.8059 N.ar    1  UNL1       -0.2436
      6 C         140.8039  140.7303  170.3388 C.ar    1  UNL1        0.1045
      7 C         141.5867  141.6110  169.4106 C.ar    1  UNL1        0.0853
      8 C         141.2495  141.6484  167.9495 C.ar    1  UNL1        0.0522
      9 C         140.1294  140.8050  167.4166 C.ar    1  UNL1        0.0310
     10 C         139.7921  140.8423  165.9555 C.ar    1  UNL1        0.0028
     11 C         137.6603  140.1110  161.0391 C.ar    1  UNL1        0.0911
     12 C         138.3037  138.8913  161.6293 C.ar    1  UNL1        0.0174
     13 C         138.6409  138.8539  163.0905 C.ar    1  UNL1        0.0051
     14 C         138.3348  140.0362  163.9613 C.ar    1  UNL1        0.0460
     15 C         137.6914  141.2559  163.3711 C.ar    1  UNL1        0.2219
     16 F         137.3853  142.4383  164.2420 F       1  UNL1       -0.1832
     17 N         137.3542  141.2933  161.9100 N.ar    1  UNL1       -0.2199
     18 C         137.3231  140.1484  159.5780 C.3     1  UNL1        0.1876
     19 C         139.5953  141.2912  159.0478 C.3     1  UNL1        0.1747
     20 O         138.2187  140.8765  158.6200 O.3     1  UNL1       -0.3447
     21 C         142.7068  142.4544  169.9436 C.2     1  UNL1        0.2455
     22 N         142.6029  143.0623  171.3110 N.am    1  UNL1       -0.3252
     23 O         143.9309  142.6900  169.1092 O.2     1  UNL1       -0.2703
     24 H         141.7995  142.9077  171.8586 H       1  UNL1        0.1453
     25 H         143.3380  143.6159  171.6608 H       1  UNL1        0.1453
     26 N         142.0323  142.5291  167.0214 N.pl3   1  UNL1       -0.3292
     27 H         142.0213  143.5059  167.1435 H       1  UNL1        0.1471
     28 C         142.8320  141.9215  165.9072 C.3     1  UNL1        0.1117
     29 C         143.4139  140.5479  166.0642 C.3     1  UNL1        0.0278
     30 C         143.0497  142.6875  164.6361 C.ar    1  UNL1        0.0978
     31 C         144.3520  143.2655  164.1670 C.ar    1  UNL1        0.0383
     32 C         144.1105  143.9452  162.8519 C.ar    1  UNL1        0.0964
     33 N         142.6590  143.7873  162.5081 N.ar    1  UNL1       -0.2476
     34 C         141.9820  144.3142  161.2776 C.3     1  UNL1        0.1537
     35 N         142.0034  143.0100  163.6108 N.ar    1  UNL1       -0.1719
@<TRIPOS>BOND
     1    19    20    1
     2    20    18    1
     3    18    11    1
     4    11    12   ar
     5    12    13   ar
     6    13    14   ar
     7    14     1    1
     8     1     2   ar
     9     2     3   ar
    10     3     4   ar
    11     4     5   ar
    12     5     6   ar
    13     6     7   ar
    14     7    21    1
    15    21    22   am
    16    21    23    2
    17     7     8   ar
    18     8    26    1
    19    26    28    1
    20    28    29    1
    21    28    30    1
    22    30    31   ar
    23    31    32   ar
    24    32    33   ar
    25    33    34    1
    26    33    35   ar
    27     8     9   ar
    28     9    10   ar
    29    14    15   ar
    30    15    16    1
    31    15    17   ar
    32    17    11   ar
    33    10     1   ar
    34     9     4   ar
    35    35    30   ar
    36    22    24    1
    37    22    25    1
    38    26    27    1
@<TRIPOS>MOLECULE
*****
 35 38 0 0 0
SMALL
GASTEIGER

@<TRIPOS>ATOM
      1 C         142.9687  141.7174  165.3632 C.ar    1  UNL1        0.0038
      2 C         144.0409  140.8738  164.7399 C.ar    1  UNL1        0.0017
      3 C         144.3419  141.0044  163.2762 C.ar    1  UNL1        0.0191
      4 C         143.5707  141.9787  162.4360 C.ar    1  UNL1        0.0825
      5 N         143.8718  142.1093  160.9722 N.ar    1  UNL1       -0.2436
      6 C         143.1006  143.0835  160.1320 C.ar    1  UNL1        0.1045
      7 C         142.0283  143.9272  160.7554 C.ar    1  UNL1        0.0853
      8 C         141.7273  143.7966  162.2190 C.ar    1  UNL1        0.0522
      9 C         142.4985  142.8223  163.0593 C.ar    1  UNL1        0.0310
     10 C         142.1975  142.6917  164.5230 C.ar    1  UNL1        0.0028
     11 C         142.0656  141.3256  169.7543 C.ar    1  UNL1        0.0911
     12 C         143.0420  142.3603  169.2789 C.ar    1  UNL1        0.0174
     13 C         143.3430  142.4909  167.8151 C.ar    1  UNL1        0.0051
     14 C         142.6677  141.5868  166.8270 C.ar    1  UNL1        0.0460
     15 C         141.6913  140.5522  167.3024 C.ar    1  UNL1        0.2219
     16 F         141.0159  139.6481  166.3142 F       1  UNL1       -0.1832
     17 N         141.3902  140.4215  168.7660 N.ar    1  UNL1       -0.2199
     18 C         141.7645  141.1950  171.2179 C.3     1  UNL1        0.1876
     19 C         139.7700  142.8397  170.9597 C.3     1  UNL1        0.1747
     20 O         140.6563  141.9992  171.8303 O.3     1  UNL1       -0.3447
     21 C         141.2571  144.9014  159.9151 C.2     1  UNL1        0.2455
     22 N         141.9786  145.7953  158.9505 N.am    1  UNL1       -0.3252
     23 O         139.7645  144.9818  160.0394 O.2     1  UNL1       -0.2703
     24 H         142.9583  145.7426  158.8689 H       1  UNL1        0.1453
     25 H         141.4725  146.4348  158.3990 H       1  UNL1        0.1453
     26 N         140.6551  144.6402  162.8424 N.pl3   1  UNL1       -0.3292
     27 H         140.7497  145.6199  162.8637 H       1  UNL1        0.1471
     28 C         139.4387  143.9911  163.4333 C.3     1  UNL1        0.1117
     29 C         138.7449  144.6234  164.6033 C.3     1  UNL1        0.0278
     30 C         138.9162  142.7099  162.8543 C.ar    1  UNL1        0.0978
     31 C         138.1135  142.5745  161.5944 C.ar    1  UNL1        0.0383
     32 C         137.8058  141.1200  161.3949 C.ar    1  UNL1        0.0964
     33 N         138.4184  140.3564  162.5315 N.ar    1  UNL1       -0.2476
     34 C         138.3557  138.8711  162.7311 C.3     1  UNL1        0.1537
     35 N         139.1046  141.3391  163.4334 N.ar    1  UNL1       -0.1719
@<TRIPOS>BOND
     1    19    20    1
     2    20    18    1
     3    18    11    1
     4    11    12   ar
     5    12    13   ar
     6    13    14   ar
     7    14     1    1
     8     1     2   ar
     9     2     3   ar
    10     3     4   ar
    11     4     5   ar
    12     5     6   ar
    13     6     7   ar
    14     7    21    1
    15    21    22   am
    16    21    23    2
    17     7     8   ar
    18     8    26    1
    19    26    28    1
    20    28    29    1
    21    28    30    1
    22    30    31   ar
    23    31    32   ar
    24    32    33   ar
    25    33    34    1
    26    33    35   ar
    27     8     9   ar
    28     9    10   ar
    29    14    15   ar
    30    15    16    1
    31    15    17   ar
    32    17    11   ar
    33    10     1   ar
    34     9     4   ar
    35    35    30   ar
    36    22    24    1
    37    22    25    1
    38    26    27    1
@<TRIPOS>MOLECULE
*****
 35 38 0 0 0
SMALL
GASTEIGER

@<TRIPOS>ATOM
      1 C         139.6707  139.3157  165.3721 C.ar    1  UNL1        0.0038
      2 C         139.3326  137.9055  164.9890 C.ar    1  UNL1        0.0017
      3 C         139.0543  137.5640  163.5552 C.ar    1  UNL1        0.0191
      4 C         139.1141  138.6328  162.5045 C.ar    1  UNL1        0.0825
      5 N         138.8358  138.2913  161.0706 N.ar    1  UNL1       -0.2436
      6 C         138.8957  139.3601  160.0198 C.ar    1  UNL1        0.1045
      7 C         139.2339  140.7704  160.4030 C.ar    1  UNL1        0.0853
      8 C         139.5122  141.1119  161.8368 C.ar    1  UNL1        0.0522
      9 C         139.4523  140.0431  162.8875 C.ar    1  UNL1        0.0310
     10 C         139.7306  140.3845  164.3214 C.ar    1  UNL1        0.0028
     11 C         140.5057  140.3402  169.6737 C.ar    1  UNL1        0.0911
     12 C         141.5852  140.4922  168.6434 C.ar    1  UNL1        0.0174
     13 C         141.3068  140.1507  167.2095 C.ar    1  UNL1        0.0051
     14 C         139.9491  139.6572  166.8060 C.ar    1  UNL1        0.0460
     15 C         138.8696  139.5052  167.8363 C.ar    1  UNL1        0.2219
     16 F         137.5117  139.0117  167.4328 F       1  UNL1       -0.1832
     17 N         139.1478  139.8467  169.2702 N.ar    1  UNL1       -0.2199
     18 C         140.7839  140.6817  171.1076 C.3     1  UNL1        0.1876
     19 C         139.8395  143.0712  170.7220 C.3     1  UNL1        0.1747
     20 O         140.4370  142.0422  171.6354 O.3     1  UNL1       -0.3447
     21 C         139.2938  141.8392  159.3522 C.2     1  UNL1        0.2455
     22 N         140.0861  141.6148  158.0984 N.am    1  UNL1       -0.3252
     23 O         138.5615  143.1324  159.5552 O.2     1  UNL1       -0.2703
     24 H         140.5667  140.7660  157.9651 H       1  UNL1        0.1453
     25 H         140.1254  142.3162  157.4087 H       1  UNL1        0.1453
     26 N         139.8504  142.5221  162.2199 N.pl3   1  UNL1       -0.3292
     27 H         139.1373  143.1409  162.4990 H       1  UNL1        0.1471
     28 C         141.2751  142.9897  162.1777 C.3     1  UNL1        0.1117
     29 C         141.6888  144.0467  161.1970 C.3     1  UNL1        0.0278
     30 C         142.2860  142.4003  163.1161 C.ar    1  UNL1        0.0978
     31 C         142.6535  142.9382  164.4672 C.ar    1  UNL1        0.0383
     32 C         143.7015  142.0399  165.0543 C.ar    1  UNL1        0.0964
     33 N         143.9817  140.9467  164.0661 N.ar    1  UNL1       -0.2476
     34 C         144.9642  139.8274  164.2444 C.3     1  UNL1        0.1537
     35 N         143.1068  141.1695  162.8682 N.ar    1  UNL1       -0.1719
@<TRIPOS>BOND
     1    19    20    1
     2    20    18    1
     3    18    11    1
     4    11    12   ar
     5    12    13   ar
     6    13    14   ar
     7    14     1    1
     8     1     2   ar
     9     2     3   ar
    10     3     4   ar
    11     4     5   ar
    12     5     6   ar
    13     6     7   ar
    14     7    21    1
    15    21    22   am
    16    21    23    2
    17     7     8   ar
    18     8    26    1
    19    26    28    1
    20    28    29    1
    21    28    30    1
    22    30    31   ar
    23    31    32   ar
    24    32    33   ar
    25    33    34    1
    26    33    35   ar
    27     8     9   ar
    28     9    10   ar
    29    14    15   ar
    30    15    16    1
    31    15    17   ar
    32    17    11   ar
    33    10     1   ar
    34     9     4   ar
    35    35    30   ar
    36    22    24    1
    37    22    25    1
    38    26    27    1
@<TRIPOS>MOLECULE
*****
 35 38 0 0 0
SMALL
GASTEIGER

@<TRIPOS>ATOM
      1 C         139.4767  141.7887  163.3819 C.ar    1  UNL1        0.0038
      2 C         138.5487  140.6569  163.0539 C.ar    1  UNL1        0.0017
      3 C         138.0758  139.7361  164.1394 C.ar    1  UNL1        0.0191
      4 C         138.5310  139.9471  165.5530 C.ar    1  UNL1        0.0825
      5 N         138.0581  139.0262  166.6386 N.ar    1  UNL1       -0.2436
      6 C         138.5133  139.2372  168.0522 C.ar    1  UNL1        0.1045
      7 C         139.4415  140.3690  168.3802 C.ar    1  UNL1        0.0853
      8 C         139.9143  141.2899  167.2947 C.ar    1  UNL1        0.0522
      9 C         139.4591  141.0789  165.8811 C.ar    1  UNL1        0.0310
     10 C         139.9320  141.9997  164.7955 C.ar    1  UNL1        0.0028
     11 C         140.8954  144.5513  160.1252 C.ar    1  UNL1        0.0911
     12 C         141.7489  143.3937  160.5514 C.ar    1  UNL1        0.0174
     13 C         141.2760  142.4728  161.6369 C.ar    1  UNL1        0.0051
     14 C         139.9497  142.7096  162.2963 C.ar    1  UNL1        0.0460
     15 C         139.0962  143.8672  161.8702 C.ar    1  UNL1        0.2219
     16 F         137.7699  144.1039  162.5297 F       1  UNL1       -0.1832
     17 N         139.5691  144.7881  160.7847 N.ar    1  UNL1       -0.2199
     18 C         141.3683  145.4722  159.0397 C.3     1  UNL1        0.1876
     19 C         139.9422  145.1437  156.8930 C.3     1  UNL1        0.1747
     20 O         140.3936  146.0077  158.0331 O.3     1  UNL1       -0.3447
     21 C         139.8967  140.5800  169.7938 C.2     1  UNL1        0.2455
     22 N         140.6902  139.5162  170.4929 N.am    1  UNL1       -0.3252
     23 O         139.5584  141.8547  170.5083 O.2     1  UNL1       -0.2703
     24 H         140.9123  138.6795  170.0239 H       1  UNL1        0.1453
     25 H         140.9890  139.6546  171.4207 H       1  UNL1        0.1453
     26 N         140.8424  142.4216  167.6227 N.pl3   1  UNL1       -0.3292
     27 H         140.4801  143.3196  167.8007 H       1  UNL1        0.1471
     28 C         142.3226  142.1854  167.6796 C.3     1  UNL1        0.1117
     29 C         143.0475  142.2807  168.9894 C.3     1  UNL1        0.0278
     30 C         143.0779  141.8537  166.4268 C.ar    1  UNL1        0.0978
     31 C         143.7897  142.8329  165.5411 C.ar    1  UNL1        0.0383
     32 C         144.4057  142.0691  164.4067 C.ar    1  UNL1        0.0964
     33 N         144.0746  140.6177  164.5912 N.ar    1  UNL1       -0.2476
     34 C         144.4911  139.4964  163.6862 C.3     1  UNL1        0.1537
     35 N         143.2540  140.4847  165.8397 N.ar    1  UNL1       -0.1719
@<TRIPOS>BOND
     1    19    20    1
     2    20    18    1
     3    18    11    1
     4    11    12   ar
     5    12    13   ar
     6    13    14   ar
     7    14     1    1
     8     1     2   ar
     9     2     3   ar
    10     3     4   ar
    11     4     5   ar
    12     5     6   ar
    13     6     7   ar
    14     7    21    1
    15    21    22   am
    16    21    23    2
    17     7     8   ar
    18     8    26    1
    19    26    28    1
    20    28    29    1
    21    28    30    1
    22    30    31   ar
    23    31    32   ar
    24    32    33   ar
    25    33    34    1
    26    33    35   ar
    27     8     9   ar
    28     9    10   ar
    29    14    15   ar
    30    15    16    1
    31    15    17   ar
    32    17    11   ar
    33    10     1   ar
    34     9     4   ar
    35    35    30   ar
    36    22    24    1
    37    22    25    1
    38    26    27    1
@<TRIPOS>MOLECULE
*****
 35 38 0 0 0
SMALL
GASTEIGER

@<TRIPOS>ATOM
      1 C         141.2797  142.0239  166.8929 C.ar    1  UNL1        0.0038
      2 C         142.7509  142.0793  167.1800 C.ar    1  UNL1        0.0017
      3 C         143.6912  142.6620  166.1670 C.ar    1  UNL1        0.0191
      4 C         143.1604  143.1892  164.8669 C.ar    1  UNL1        0.0825
      5 N         144.1008  143.7719  163.8539 N.ar    1  UNL1       -0.2436
      6 C         143.5699  144.2992  162.5538 C.ar    1  UNL1        0.1045
      7 C         142.0986  144.2438  162.2668 C.ar    1  UNL1        0.0853
      8 C         141.1583  143.6611  163.2798 C.ar    1  UNL1        0.0522
      9 C         141.6892  143.1338  164.5799 C.ar    1  UNL1        0.0310
     10 C         140.7489  142.5511  165.5929 C.ar    1  UNL1        0.0028
     11 C         138.4585  140.2758  169.9320 C.ar    1  UNL1        0.0911
     12 C         138.6235  139.6159  168.5951 C.ar    1  UNL1        0.0174
     13 C         139.5640  140.1986  167.5820 C.ar    1  UNL1        0.0051
     14 C         140.3393  141.4412  167.9059 C.ar    1  UNL1        0.0460
     15 C         140.1743  142.1010  169.2429 C.ar    1  UNL1        0.2219
     16 F         140.9497  143.3436  169.5668 F       1  UNL1       -0.1832
     17 N         139.2339  141.5184  170.2559 N.ar    1  UNL1       -0.2199
     18 C         137.5182  139.6932  170.9450 C.3     1  UNL1        0.1876
     19 C         136.1034  137.6501  171.7030 C.3     1  UNL1        0.1747
     20 O         136.7145  138.4725  170.6073 O.3     1  UNL1       -0.3447
     21 C         141.5678  144.7710  160.9667 C.2     1  UNL1        0.2455
     22 N         142.2115  144.3653  159.6740 N.am    1  UNL1       -0.3252
     23 O         140.3932  145.7039  160.9594 O.2     1  UNL1       -0.2703
     24 H         142.9824  143.7530  159.6788 H       1  UNL1        0.1453
     25 H         141.8631  144.7114  158.8207 H       1  UNL1        0.1453
     26 N         139.6871  143.6056  162.9927 N.pl3   1  UNL1       -0.3292
     27 H         139.0972  144.3298  163.3040 H       1  UNL1        0.1471
     28 C         139.1146  142.4469  162.2314 C.3     1  UNL1        0.1117
     29 C         138.4820  142.6700  160.8897 C.3     1  UNL1        0.0278
     30 C         139.1747  141.0650  162.8117 C.ar    1  UNL1        0.0978
     31 C         138.1960  140.4730  163.7821 C.ar    1  UNL1        0.0383
     32 C         138.6404  139.0746  164.0937 C.ar    1  UNL1        0.0964
     33 N         139.8939  138.8024  163.3159 N.ar    1  UNL1       -0.2476
     34 C         140.6792  137.5245  163.3283 C.3     1  UNL1        0.1537
     35 N         140.2240  140.0326  162.5236 N.ar    1  UNL1       -0.1719
@<TRIPOS>BOND
     1    19    20    1
     2    20    18    1
     3    18    11    1
     4    11    12   ar
     5    12    13   ar
     6    13    14   ar
     7    14     1    1
     8     1     2   ar
     9     2     3   ar
    10     3     4   ar
    11     4     5   ar
    12     5     6   ar
    13     6     7   ar
    14     7    21    1
    15    21    22   am
    16    21    23    2
    17     7     8   ar
    18     8    26    1
    19    26    28    1
    20    28    29    1
    21    28    30    1
    22    30    31   ar
    23    31    32   ar
    24    32    33   ar
    25    33    34    1
    26    33    35   ar
    27     8     9   ar
    28     9    10   ar
    29    14    15   ar
    30    15    16    1
    31    15    17   ar
    32    17    11   ar
    33    10     1   ar
    34     9     4   ar
    35    35    30   ar
    36    22    24    1
    37    22    25    1
    38    26    27    1
@<TRIPOS>MOLECULE
*****
 35 38 0 0 0
SMALL
GASTEIGER

@<TRIPOS>ATOM
      1 C         140.2166  139.1139  165.4718 C.ar    1  UNL1        0.0038
      2 C         139.1805  138.1060  165.0711 C.ar    1  UNL1        0.0017
      3 C         139.0411  137.7050  163.6325 C.ar    1  UNL1        0.0191
      4 C         139.9379  138.3119  162.5945 C.ar    1  UNL1        0.0825
      5 N         139.7985  137.9108  161.1558 N.ar    1  UNL1       -0.2436
      6 C         140.6953  138.5176  160.1178 C.ar    1  UNL1        0.1045
      7 C         141.7316  139.5255  160.5185 C.ar    1  UNL1        0.0853
      8 C         141.8709  139.9266  161.9571 C.ar    1  UNL1        0.0522
      9 C         140.9741  139.3197  162.9951 C.ar    1  UNL1        0.0310
     10 C         141.1134  139.7207  164.4337 C.ar    1  UNL1        0.0028
     11 C         140.6347  140.3170  169.7878 C.ar    1  UNL1        0.0911
     12 C         141.8459  140.2588  168.9047 C.ar    1  UNL1        0.0174
     13 C         141.7065  139.8577  167.4660 C.ar    1  UNL1        0.0051
     14 C         140.3560  139.5149  166.9105 C.ar    1  UNL1        0.0460
     15 C         139.1449  139.5732  167.7935 C.ar    1  UNL1        0.2219
     16 F         137.7944  139.2304  167.2379 F       1  UNL1       -0.1832
     17 N         139.2842  139.9742  169.2321 N.ar    1  UNL1       -0.2199
     18 C         140.7741  140.7180  171.2264 C.3     1  UNL1        0.1876
     19 C         139.8772  143.0905  170.6633 C.3     1  UNL1        0.1747
     20 O         140.4803  142.1286  171.6436 O.3     1  UNL1       -0.3447
     21 C         142.6284  140.1324  159.4805 C.2     1  UNL1        0.2455
     22 N         143.9664  139.5180  159.1935 N.am    1  UNL1       -0.3252
     23 O         142.1872  141.3536  158.7295 O.2     1  UNL1       -0.2703
     24 H         144.2559  138.7165  159.6864 H       1  UNL1        0.1453
     25 H         144.5550  139.9163  158.5122 H       1  UNL1        0.1453
     26 N         142.9071  140.9344  162.3577 N.pl3   1  UNL1       -0.3292
     27 H         143.7761  140.6338  162.7095 H       1  UNL1        0.1471
     28 C         142.6192  142.4004  162.2224 C.3     1  UNL1        0.1117
     29 C         143.5252  143.2699  161.4020 C.3     1  UNL1        0.0278
     30 C         141.4256  142.9967  162.9076 C.ar    1  UNL1        0.0978
     31 C         141.3817  143.5065  164.3176 C.ar    1  UNL1        0.0383
     32 C         139.9952  144.0128  164.5845 C.ar    1  UNL1        0.0964
     33 N         139.1821  143.8158  163.3394 N.ar    1  UNL1       -0.2476
     34 C         137.7385  144.1825  163.1620 C.3     1  UNL1        0.1537
     35 N         140.0661  143.1878  162.3031 N.ar    1  UNL1       -0.1719
@<TRIPOS>BOND
     1    19    20    1
     2    20    18    1
     3    18    11    1
     4    11    12   ar
     5    12    13   ar
     6    13    14   ar
     7    14     1    1
     8     1     2   ar
     9     2     3   ar
    10     3     4   ar
    11     4     5   ar
    12     5     6   ar
    13     6     7   ar
    14     7    21    1
    15    21    22   am
    16    21    23    2
    17     7     8   ar
    18     8    26    1
    19    26    28    1
    20    28    29    1
    21    28    30    1
    22    30    31   ar
    23    31    32   ar
    24    32    33   ar
    25    33    34    1
    26    33    35   ar
    27     8     9   ar
    28     9    10   ar
    29    14    15   ar
    30    15    16    1
    31    15    17   ar
    32    17    11   ar
    33    10     1   ar
    34     9     4   ar
    35    35    30   ar
    36    22    24    1
    37    22    25    1
    38    26    27    1
@<TRIPOS>MOLECULE
*****
 35 38 0 0 0
SMALL
GASTEIGER

@<TRIPOS>ATOM
      1 C         140.6525  139.1877  164.4378 C.ar    1  UNL1        0.0038
      2 C         141.7473  138.2451  164.0343 C.ar    1  UNL1        0.0017
      3 C         141.9906  137.9557  162.5827 C.ar    1  UNL1        0.0191
      4 C         141.1392  138.6090  161.5347 C.ar    1  UNL1        0.0825
      5 N         141.3827  138.3196  160.0831 N.ar    1  UNL1       -0.2436
      6 C         140.5313  138.9729  159.0351 C.ar    1  UNL1        0.1045
      7 C         139.4364  139.9156  159.4387 C.ar    1  UNL1        0.0853
      8 C         139.1931  140.2049  160.8902 C.ar    1  UNL1        0.0522
      9 C         140.0445  139.5517  161.9382 C.ar    1  UNL1        0.0310
     10 C         139.8011  139.8410  163.3898 C.ar    1  UNL1        0.0028
     11 C         139.9222  140.0559  168.7925 C.ar    1  UNL1        0.0911
     12 C         141.2664  140.3338  168.1875 C.ar    1  UNL1        0.0174
     13 C         141.5098  140.0444  166.7359 C.ar    1  UNL1        0.0051
     14 C         140.4091  139.4771  165.8894 C.ar    1  UNL1        0.0460
     15 C         139.0649  139.1992  166.4944 C.ar    1  UNL1        0.2219
     16 F         137.9642  138.6320  165.6478 F       1  UNL1       -0.1832
     17 N         138.8215  139.4886  167.9459 N.ar    1  UNL1       -0.2199
     18 C         139.6788  140.3453  170.2440 C.3     1  UNL1        0.1876
     19 C         139.7910  142.9124  170.6275 C.3     1  UNL1        0.1747
     20 O         139.0168  141.6278  170.6523 O.3     1  UNL1       -0.3447
     21 C         138.5850  140.5689  158.3907 C.2     1  UNL1        0.2455
     22 N         139.1803  141.5965  157.4742 N.am    1  UNL1       -0.3252
     23 O         137.1385  140.1946  158.2591 O.2     1  UNL1       -0.2703
     24 H         140.1297  141.8421  157.5606 H       1  UNL1        0.1453
     25 H         138.6215  142.0253  156.7863 H       1  UNL1        0.1453
     26 N         138.0983  141.1476  161.2937 N.pl3   1  UNL1       -0.3292
     27 H         137.1587  140.8563  161.2548 H       1  UNL1        0.1471
     28 C         138.4351  142.5341  161.7566 C.3     1  UNL1        0.1117
     29 C         137.7400  143.1152  162.9521 C.3     1  UNL1        0.0278
     30 C         139.4670  143.3394  161.0241 C.ar    1  UNL1        0.0978
     31 C         140.8035  143.7578  161.5613 C.ar    1  UNL1        0.0383
     32 C         141.5060  144.5447  160.4950 C.ar    1  UNL1        0.0964
     33 N         140.6037  144.6127  159.2986 N.ar    1  UNL1       -0.2476
     34 C         140.9082  145.3041  158.0027 C.3     1  UNL1        0.1537
     35 N         139.3435  143.8677  159.6256 N.ar    1  UNL1       -0.1719
@<TRIPOS>BOND
     1    19    20    1
     2    20    18    1
     3    18    11    1
     4    11    12   ar
     5    12    13   ar
     6    13    14   ar
     7    14     1    1
     8     1     2   ar
     9     2     3   ar
    10     3     4   ar
    11     4     5   ar
    12     5     6   ar
    13     6     7   ar
    14     7    21    1
    15    21    22   am
    16    21    23    2
    17     7     8   ar
    18     8    26    1
    19    26    28    1
    20    28    29    1
    21    28    30    1
    22    30    31   ar
    23    31    32   ar
    24    32    33   ar
    25    33    34    1
    26    33    35   ar
    27     8     9   ar
    28     9    10   ar
    29    14    15   ar
    30    15    16    1
    31    15    17   ar
    32    17    11   ar
    33    10     1   ar
    34     9     4   ar
    35    35    30   ar
    36    22    24    1
    37    22    25    1
    38    26    27    1
