@<TRIPOS>MOLECULE
*****
 43 46 0 0 0
SMALL
GASTEIGER

@<TRIPOS>ATOM
      1 C         141.9968  141.3921  162.8810 C.3     1  UNL1        0.0779
      2 C         142.3357  141.6263  164.3234 C.ar    1  UNL1        0.0373
      3 C         141.5396  140.9503  165.4001 C.ar    1  UNL1        0.0023
      4 C         141.8783  141.1844  166.8425 C.ar    1  UNL1        0.0181
      5 C         141.0822  140.5085  167.9192 C.ar    1  UNL1        0.0082
      6 C         141.4211  140.7426  169.3616 C.ar    1  UNL1        0.0347
      7 BR        140.6250  140.0667  170.4383 Br      1  UNL1       -0.0490
      8 C         142.5560  141.6527  169.7272 C.ar    1  UNL1        0.0082
      9 C         143.3521  142.3286  168.6505 C.ar    1  UNL1        0.0197
     10 C         143.0133  142.0945  167.2082 C.ar    1  UNL1        0.0844
     11 N         143.8094  142.7705  166.1315 N.ar    1  UNL1       -0.2119
     12 C         143.4706  142.5363  164.6891 C.ar    1  UNL1        0.2211
     13 O         144.2667  143.2123  163.6124 O.3     1  UNL1       -0.4563
     14 C         143.9492  144.6246  163.2194 C.3     1  UNL1        0.2542
     15 C         141.2176  142.4212  162.1170 C.ar    1  UNL1       -0.0083
     16 C         139.9270  142.9482  162.6707 C.ar    1  UNL1        0.0539
     17 C         139.1478  143.9774  161.9067 C.ar    1  UNL1        0.2258
     18 N         139.6592  144.4795  160.5890 N.ar    1  UNL1       -0.1967
     19 C         140.9498  143.9525  160.0353 C.ar    1  UNL1        0.1346
     20 C         141.7291  142.9233  160.7994 C.ar    1  UNL1        0.0307
     21 N         141.4613  144.4546  158.7177 N.pl3   1  UNL1       -0.2897
     22 C         142.7508  143.9261  158.1631 C.3     1  UNL1        0.1136
     23 C         140.6831  145.4852  157.9546 C.3     1  UNL1        0.1136
     24 O         137.8572  144.5044  162.4604 O.3     1  UNL1       -0.4561
     25 C         137.4655  144.1939  163.8748 C.3     1  UNL1        0.2542
     26 C         142.4372  140.1288  162.2027 C.3     1  UNL1        0.1161
     27 O         143.8483  140.6368  162.1727 O.3     1  UNL1       -0.3820
     28 H         144.4209  139.9761  161.7527 H       1  UNL1        0.2107
     29 C         139.0807  138.4558  163.5007 C.ar    1  UNL1        0.2272
     30 C         140.4918  138.9638  163.4707 C.ar    1  UNL1        0.0559
     31 C         141.0262  139.6208  162.2327 C.ar    1  UNL1        0.0117
     32 C         140.1496  139.7698  161.0247 C.ar    1  UNL1        0.0559
     33 C         138.7385  139.2618  161.0547 C.ar    1  UNL1        0.2272
     34 N         138.2041  138.6048  162.2927 N.ar    1  UNL1       -0.1767
     35 C         138.3690  138.5984  165.9953 C.3     1  UNL1        0.2542
     36 O         138.5463  137.7987  164.7387 O.3     1  UNL1       -0.4561
     37 O         137.8619  139.4109  159.8466 O.3     1  UNL1       -0.4561
     38 C         138.1099  140.5246  158.8729 C.3     1  UNL1        0.2542
     39 C         142.8776  138.8655  161.5244 C.3     1  UNL1        0.0491
     40 C         143.9478  138.9119  160.4742 C.3     1  UNL1        0.0750
     41 N         143.5916  139.2400  159.0545 N.3     1  UNL1       -0.2702
     42 C         142.7355  138.2994  158.2595 C.3     1  UNL1        0.0897
     43 C         144.0916  140.5089  158.4299 C.3     1  UNL1        0.0897
@<TRIPOS>BOND
     1    35    36    1
     2    36    29    1
     3    29    30   ar
     4    30    31   ar
     5    31    26    1
     6    26    27    1
     7    26    39    1
     8    39    40    1
     9    40    41    1
    10    41    42    1
    11    41    43    1
    12    26     1    1
    13     1    15    1
    14    15    16   ar
    15    16    17   ar
    16    17    24    1
    17    24    25    1
    18    17    18   ar
    19    18    19   ar
    20    19    21    1
    21    21    22    1
    22    21    23    1
    23    19    20   ar
    24     1     2    1
    25     2     3   ar
    26     3     4   ar
    27     4     5   ar
    28     5     6   ar
    29     6     7    1
    30     6     8   ar
    31     8     9   ar
    32     9    10   ar
    33    10    11   ar
    34    11    12   ar
    35    12    13    1
    36    13    14    1
    37    31    32   ar
    38    32    33   ar
    39    33    37    1
    40    37    38    1
    41    33    34   ar
    42    34    29   ar
    43    20    15   ar
    44    12     2   ar
    45    10     4   ar
    46    27    28    1
@<TRIPOS>MOLECULE
*****
 43 46 0 0 0
SMALL
GASTEIGER

@<TRIPOS>ATOM
      1 C         142.0592  141.4285  162.9339 C.3     1  UNL1        0.0779
      2 C         142.3751  141.6599  164.3819 C.ar    1  UNL1        0.0373
      3 C         141.5679  140.9747  165.4444 C.ar    1  UNL1        0.0023
      4 C         141.8838  141.2061  166.8924 C.ar    1  UNL1        0.0181
      5 C         141.0766  140.5209  167.9549 C.ar    1  UNL1        0.0082
      6 C         141.3925  140.7523  169.4030 C.ar    1  UNL1        0.0347
      7 BR        140.5853  140.0671  170.4655 Br      1  UNL1       -0.0490
      8 C         142.5156  141.6688  169.7884 C.ar    1  UNL1        0.0082
      9 C         143.3228  142.3540  168.7259 C.ar    1  UNL1        0.0197
     10 C         143.0069  142.1226  167.2779 C.ar    1  UNL1        0.0844
     11 N         143.8142  142.8078  166.2154 N.ar    1  UNL1       -0.2119
     12 C         143.4982  142.5764  164.7674 C.ar    1  UNL1        0.2211
     13 O         144.3055  143.2616  163.7049 O.3     1  UNL1       -0.4563
     14 C         143.9644  144.6621  163.2901 C.3     1  UNL1        0.2542
     15 C         141.2681  142.4463  162.1670 C.ar    1  UNL1       -0.0083
     16 C         139.9712  142.9595  162.7190 C.ar    1  UNL1        0.0539
     17 C         139.1801  143.9773  161.9520 C.ar    1  UNL1        0.2258
     18 N         139.6857  144.4818  160.6330 N.ar    1  UNL1       -0.1967
     19 C         140.9826  143.9685  160.0810 C.ar    1  UNL1        0.1346
     20 C         141.7738  142.9507  160.8480 C.ar    1  UNL1        0.0307
     21 N         141.4883  144.4730  158.7620 N.pl3   1  UNL1       -0.2897
     22 C         140.7464  145.5583  158.0398 C.3     1  UNL1        0.1136
     23 C         142.7359  143.8921  158.1652 C.3     1  UNL1        0.1136
     24 O         137.8832  144.4905  162.5041 O.3     1  UNL1       -0.4561
     25 C         137.4819  144.1561  163.9102 C.3     1  UNL1        0.2542
     26 C         142.5345  140.1794  162.2529 C.3     1  UNL1        0.1161
     27 O         143.9367  140.7120  162.2545 O.3     1  UNL1       -0.3820
     28 H         144.5287  140.0653  161.8396 H       1  UNL1        0.2107
     29 C         138.8777  139.2495  161.0229 C.ar    1  UNL1        0.2272
     30 C         140.2799  139.7821  161.0245 C.ar    1  UNL1        0.0559
     31 C         141.1322  139.6467  162.2513 C.ar    1  UNL1        0.0117
     32 C         140.5823  138.9787  163.4766 C.ar    1  UNL1        0.0559
     33 C         139.1801  138.4461  163.4750 C.ar    1  UNL1        0.2272
     34 N         138.3278  138.5814  162.2481 N.ar    1  UNL1       -0.1767
     35 C         138.4622  140.2800  158.6744 C.3     1  UNL1        0.2542
     36 O         138.0254  139.3848  159.7959 O.3     1  UNL1       -0.4561
     37 O         138.6302  137.7780  164.7003 O.3     1  UNL1       -0.4561
     38 C         138.3370  138.5879  165.9284 C.3     1  UNL1        0.2542
     39 C         143.0098  138.9303  161.5719 C.3     1  UNL1        0.0491
     40 C         144.0228  139.0164  160.4689 C.3     1  UNL1        0.0750
     41 N         143.5713  139.1517  159.0449 N.3     1  UNL1       -0.2702
     42 C         142.6902  138.1025  158.4345 C.3     1  UNL1        0.0897
     43 C         144.0010  140.3365  158.2312 C.3     1  UNL1        0.0897
@<TRIPOS>BOND
     1    35    36    1
     2    36    29    1
     3    29    30   ar
     4    30    31   ar
     5    31    26    1
     6    26    27    1
     7    26    39    1
     8    39    40    1
     9    40    41    1
    10    41    42    1
    11    41    43    1
    12    26     1    1
    13     1    15    1
    14    15    16   ar
    15    16    17   ar
    16    17    24    1
    17    24    25    1
    18    17    18   ar
    19    18    19   ar
    20    19    21    1
    21    21    22    1
    22    21    23    1
    23    19    20   ar
    24     1     2    1
    25     2     3   ar
    26     3     4   ar
    27     4     5   ar
    28     5     6   ar
    29     6     7    1
    30     6     8   ar
    31     8     9   ar
    32     9    10   ar
    33    10    11   ar
    34    11    12   ar
    35    12    13    1
    36    13    14    1
    37    31    32   ar
    38    32    33   ar
    39    33    37    1
    40    37    38    1
    41    33    34   ar
    42    34    29   ar
    43    20    15   ar
    44    12     2   ar
    45    10     4   ar
    46    27    28    1
@<TRIPOS>MOLECULE
*****
 43 46 0 0 0
SMALL
GASTEIGER

@<TRIPOS>ATOM
      1 C         141.9960  141.9919  162.6380 C.3     1  UNL1        0.0779
      2 C         142.3161  142.1100  164.0987 C.ar    1  UNL1        0.0373
      3 C         141.2562  141.8334  165.1235 C.ar    1  UNL1        0.0023
      4 C         141.5762  141.9514  166.5841 C.ar    1  UNL1        0.0181
      5 C         140.5163  141.6748  167.6089 C.ar    1  UNL1        0.0082
      6 C         140.8364  141.7929  169.0696 C.ar    1  UNL1        0.0347
      7 BR        139.7765  141.5163  170.0944 Br      1  UNL1       -0.0490
      8 C         142.2163  142.1876  169.5055 C.ar    1  UNL1        0.0082
      9 C         143.2762  142.4642  168.4808 C.ar    1  UNL1        0.0197
     10 C         142.9562  142.3461  167.0201 C.ar    1  UNL1        0.0844
     11 N         144.0161  142.6227  165.9954 N.ar    1  UNL1       -0.2119
     12 C         143.6960  142.5047  164.5346 C.ar    1  UNL1        0.2211
     13 O         144.7559  142.7813  163.5099 O.3     1  UNL1       -0.4563
     14 C         145.7764  141.7313  163.1841 C.3     1  UNL1        0.2542
     15 C         142.0659  140.6554  161.9605 C.ar    1  UNL1       -0.0083
     16 C         141.6612  139.4163  162.7027 C.ar    1  UNL1        0.0539
     17 C         141.7310  138.0799  162.0253 C.ar    1  UNL1        0.2258
     18 N         142.2055  137.9825  160.6056 N.ar    1  UNL1       -0.1967
     19 C         142.6102  139.2216  159.8634 C.ar    1  UNL1        0.1346
     20 C         142.5403  140.5581  160.5409 C.ar    1  UNL1        0.0307
     21 N         143.0847  139.1243  158.4438 N.pl3   1  UNL1       -0.2897
     22 C         143.9037  140.2313  157.8492 C.3     1  UNL1        0.1136
     23 C         142.7401  137.9199  157.6187 C.3     1  UNL1        0.1136
     24 O         141.3263  136.8408  162.7674 O.3     1  UNL1       -0.4561
     25 C         141.0114  136.9131  164.2323 C.3     1  UNL1        0.2542
     26 C         141.6062  143.2103  161.8547 C.3     1  UNL1        0.1161
     27 O         143.0425  143.4309  161.4829 O.3     1  UNL1       -0.3820
     28 H         143.1145  144.2213  160.9253 H       1  UNL1        0.2107
     29 C         137.9337  141.7068  161.9043 C.ar    1  UNL1        0.2272
     30 C         139.3701  141.9274  161.5325 C.ar    1  UNL1        0.0559
     31 C         140.1698  142.9897  162.2265 C.ar    1  UNL1        0.0117
     32 C         139.5332  143.8315  163.2924 C.ar    1  UNL1        0.0559
     33 C         138.0969  143.6109  163.6642 C.ar    1  UNL1        0.2272
     34 N         137.2971  142.5486  162.9701 N.ar    1  UNL1       -0.1767
     35 C         137.6302  139.2291  161.1838 C.3     1  UNL1        0.2542
     36 O         137.1340  140.6444  161.2101 O.3     1  UNL1       -0.4561
     37 O         137.4603  144.4527  164.7302 O.3     1  UNL1       -0.4561
     38 C         138.3055  145.0614  165.8096 C.3     1  UNL1        0.2542
     39 C         141.2163  144.4288  161.0715 C.3     1  UNL1        0.0491
     40 C         141.5697  144.5303  159.6172 C.3     1  UNL1        0.0750
     41 N         140.4865  144.6864  158.5914 N.3     1  UNL1       -0.2702
     42 C         139.5527  143.5474  158.3073 C.3     1  UNL1        0.0897
     43 C         140.3371  145.9816  157.8496 C.3     1  UNL1        0.0897
@<TRIPOS>BOND
     1    35    36    1
     2    36    29    1
     3    29    30   ar
     4    30    31   ar
     5    31    26    1
     6    26    27    1
     7    26    39    1
     8    39    40    1
     9    40    41    1
    10    41    42    1
    11    41    43    1
    12    26     1    1
    13     1    15    1
    14    15    16   ar
    15    16    17   ar
    16    17    24    1
    17    24    25    1
    18    17    18   ar
    19    18    19   ar
    20    19    21    1
    21    21    22    1
    22    21    23    1
    23    19    20   ar
    24     1     2    1
    25     2     3   ar
    26     3     4   ar
    27     4     5   ar
    28     5     6   ar
    29     6     7    1
    30     6     8   ar
    31     8     9   ar
    32     9    10   ar
    33    10    11   ar
    34    11    12   ar
    35    12    13    1
    36    13    14    1
    37    31    32   ar
    38    32    33   ar
    39    33    37    1
    40    37    38    1
    41    33    34   ar
    42    34    29   ar
    43    20    15   ar
    44    12     2   ar
    45    10     4   ar
    46    27    28    1
@<TRIPOS>MOLECULE
*****
 43 46 0 0 0
SMALL
GASTEIGER

@<TRIPOS>ATOM
      1 C         140.7975  140.1016  161.8087 C.3     1  UNL1        0.0779
      2 C         140.2827  139.8837  163.2007 C.ar    1  UNL1        0.0373
      3 C         140.7425  140.7726  164.3181 C.ar    1  UNL1        0.0023
      4 C         140.2278  140.5547  165.7100 C.ar    1  UNL1        0.0181
      5 C         140.6877  141.4435  166.8274 C.ar    1  UNL1        0.0082
      6 C         140.1729  141.2256  168.2194 C.ar    1  UNL1        0.0347
      7 BR        140.6328  142.1144  169.3368 Br      1  UNL1       -0.0490
      8 C         139.1983  140.1190  168.4940 C.ar    1  UNL1        0.0082
      9 C         138.7384  139.2302  167.3766 C.ar    1  UNL1        0.0197
     10 C         139.2532  139.4480  165.9846 C.ar    1  UNL1        0.0844
     11 N         138.7933  138.5592  164.8673 N.ar    1  UNL1       -0.2119
     12 C         139.3081  138.7771  163.4752 C.ar    1  UNL1        0.2211
     13 O         138.8482  137.8883  162.3579 O.3     1  UNL1       -0.4563
     14 C         137.6062  138.2308  161.5898 C.3     1  UNL1        0.2542
     15 C         140.2895  141.2533  160.9929 C.ar    1  UNL1       -0.0083
     16 C         140.0743  142.5911  161.6365 C.ar    1  UNL1        0.0539
     17 C         139.5663  143.7428  160.8207 C.ar    1  UNL1        0.2258
     18 N         139.2736  143.5568  159.3613 N.ar    1  UNL1       -0.1967
     19 C         139.4889  142.2191  158.7177 C.ar    1  UNL1        0.1346
     20 C         139.9969  141.0673  159.5336 C.ar    1  UNL1        0.0307
     21 N         139.1963  142.0331  157.2584 N.pl3   1  UNL1       -0.2897
     22 C         140.3228  141.8523  156.2847 C.3     1  UNL1        0.1136
     23 C         137.7771  142.0279  156.7728 C.3     1  UNL1        0.1136
     24 O         139.3510  145.0805  161.4643 O.3     1  UNL1       -0.4561
     25 C         139.0816  145.1695  162.9373 C.3     1  UNL1        0.2542
     26 C         141.8202  139.1678  161.2325 C.3     1  UNL1        0.1161
     27 O         140.7841  138.6054  160.3050 O.3     1  UNL1       -0.3820
     28 H         141.1843  137.9148  159.7538 H       1  UNL1        0.2107
     29 C         144.3684  139.4848  164.2583 C.ar    1  UNL1        0.2272
     30 C         143.3324  138.9224  163.3308 C.ar    1  UNL1        0.0559
     31 C         142.8562  139.7302  162.1600 C.ar    1  UNL1        0.0117
     32 C         143.4161  141.1003  161.9168 C.ar    1  UNL1        0.0559
     33 C         144.4522  141.6627  162.8443 C.ar    1  UNL1        0.2272
     34 N         144.9284  140.8549  164.0151 N.ar    1  UNL1       -0.1767
     35 C         143.8571  138.1481  166.4267 C.3     1  UNL1        0.2542
     36 O         144.8446  138.6770  165.4292 O.3     1  UNL1       -0.4561
     37 O         145.0121  143.0329  162.6009 O.3     1  UNL1       -0.4561
     38 C         144.1154  144.2332  162.6732 C.3     1  UNL1        0.2542
     39 C         142.8429  138.2339  160.6564 C.3     1  UNL1        0.0491
     40 C         142.6681  137.6947  159.2675 C.3     1  UNL1        0.0750
     41 N         143.0965  138.5134  158.0858 N.3     1  UNL1       -0.2702
     42 C         143.0799  137.9125  156.7115 C.3     1  UNL1        0.0897
     43 C         143.5414  139.9329  158.2785 C.3     1  UNL1        0.0897
@<TRIPOS>BOND
     1    35    36    1
     2    36    29    1
     3    29    30   ar
     4    30    31   ar
     5    31    26    1
     6    26    27    1
     7    26    39    1
     8    39    40    1
     9    40    41    1
    10    41    42    1
    11    41    43    1
    12    26     1    1
    13     1    15    1
    14    15    16   ar
    15    16    17   ar
    16    17    24    1
    17    24    25    1
    18    17    18   ar
    19    18    19   ar
    20    19    21    1
    21    21    22    1
    22    21    23    1
    23    19    20   ar
    24     1     2    1
    25     2     3   ar
    26     3     4   ar
    27     4     5   ar
    28     5     6   ar
    29     6     7    1
    30     6     8   ar
    31     8     9   ar
    32     9    10   ar
    33    10    11   ar
    34    11    12   ar
    35    12    13    1
    36    13    14    1
    37    31    32   ar
    38    32    33   ar
    39    33    37    1
    40    37    38    1
    41    33    34   ar
    42    34    29   ar
    43    20    15   ar
    44    12     2   ar
    45    10     4   ar
    46    27    28    1
@<TRIPOS>MOLECULE
*****
 43 46 0 0 0
SMALL
GASTEIGER

@<TRIPOS>ATOM
      1 C         139.8231  142.5030  160.3868 C.3     1  UNL1        0.0779
      2 C         139.8259  141.2430  161.2008 C.ar    1  UNL1        0.0373
      3 C         139.1603  141.2170  162.5448 C.ar    1  UNL1        0.0023
      4 C         139.1631  139.9571  163.3589 C.ar    1  UNL1        0.0181
      5 C         138.4975  139.9311  164.7029 C.ar    1  UNL1        0.0082
      6 C         138.5003  138.6711  165.5169 C.ar    1  UNL1        0.0347
      7 BR        137.8347  138.6451  166.8609 Br      1  UNL1       -0.0490
      8 C         139.1686  137.4373  164.9870 C.ar    1  UNL1        0.0082
      9 C         139.8342  137.4633  163.6430 C.ar    1  UNL1        0.0197
     10 C         139.8315  138.7232  162.8289 C.ar    1  UNL1        0.0844
     11 N         140.4971  138.7492  161.4849 N.ar    1  UNL1       -0.2119
     12 C         140.4943  140.0092  160.6709 C.ar    1  UNL1        0.2211
     13 O         141.1598  140.0352  159.3269 O.3     1  UNL1       -0.4563
     14 C         142.4138  139.2452  159.0955 C.3     1  UNL1        0.2542
     15 C         139.1865  142.5170  159.0287 C.ar    1  UNL1       -0.0083
     16 C         138.1281  141.5108  158.6860 C.ar    1  UNL1        0.0539
     17 C         137.4915  141.5249  157.3279 C.ar    1  UNL1        0.2258
     18 N         137.9133  142.5451  156.3124 N.ar    1  UNL1       -0.1967
     19 C         138.9717  143.5513  156.6550 C.ar    1  UNL1        0.1346
     20 C         139.6083  143.5372  158.0132 C.ar    1  UNL1        0.0307
     21 N         139.3936  144.5715  155.6396 N.pl3   1  UNL1       -0.2897
     22 C         140.6702  144.3848  154.8745 C.3     1  UNL1        0.1136
     23 C         138.5387  145.7784  155.3891 C.3     1  UNL1        0.1136
     24 O         136.4331  140.5187  156.9853 O.3     1  UNL1       -0.4561
     25 C         135.5932  140.7027  155.7561 C.3     1  UNL1        0.2542
     26 C         140.4569  143.7488  160.9309 C.3     1  UNL1        0.1161
     27 O         139.0985  144.3535  161.1288 O.3     1  UNL1       -0.3820
     28 H         139.1921  145.2434  161.5032 H       1  UNL1        0.2107
     29 C         143.8528  142.6411  159.2016 C.ar    1  UNL1        0.2272
     30 C         142.4944  143.2457  159.3995 C.ar    1  UNL1        0.0559
     31 C         141.8153  143.1442  160.7331 C.ar    1  UNL1        0.0117
     32 C         142.4946  142.4381  161.8688 C.ar    1  UNL1        0.0559
     33 C         143.8530  141.8334  161.6709 C.ar    1  UNL1        0.2272
     34 N         144.5321  141.9349  160.3373 N.ar    1  UNL1       -0.1767
     35 C         145.0436  141.5058  157.1908 C.3     1  UNL1        0.2542
     36 O         144.5319  142.7426  157.8679 O.3     1  UNL1       -0.4561
     37 O         144.5323  141.1272  162.8067 O.3     1  UNL1       -0.4561
     38 C         145.7572  141.7229  163.4349 C.3     1  UNL1        0.2542
     39 C         141.0907  144.9947  161.4751 C.3     1  UNL1        0.0491
     40 C         140.5329  145.6432  162.7073 C.3     1  UNL1        0.0750
     41 N         140.2250  144.8128  163.9179 N.3     1  UNL1       -0.2702
     42 C         141.2993  143.9757  164.5463 C.3     1  UNL1        0.0897
     43 C         138.8425  144.8196  164.5002 C.3     1  UNL1        0.0897
@<TRIPOS>BOND
     1    35    36    1
     2    36    29    1
     3    29    30   ar
     4    30    31   ar
     5    31    26    1
     6    26    27    1
     7    26    39    1
     8    39    40    1
     9    40    41    1
    10    41    42    1
    11    41    43    1
    12    26     1    1
    13     1    15    1
    14    15    16   ar
    15    16    17   ar
    16    17    24    1
    17    24    25    1
    18    17    18   ar
    19    18    19   ar
    20    19    21    1
    21    21    22    1
    22    21    23    1
    23    19    20   ar
    24     1     2    1
    25     2     3   ar
    26     3     4   ar
    27     4     5   ar
    28     5     6   ar
    29     6     7    1
    30     6     8   ar
    31     8     9   ar
    32     9    10   ar
    33    10    11   ar
    34    11    12   ar
    35    12    13    1
    36    13    14    1
    37    31    32   ar
    38    32    33   ar
    39    33    37    1
    40    37    38    1
    41    33    34   ar
    42    34    29   ar
    43    20    15   ar
    44    12     2   ar
    45    10     4   ar
    46    27    28    1
@<TRIPOS>MOLECULE
*****
 43 46 0 0 0
SMALL
GASTEIGER

@<TRIPOS>ATOM
      1 C         140.9630  140.8726  161.6147 C.3     1  UNL1        0.0779
      2 C         140.2058  140.2868  162.7696 C.ar    1  UNL1        0.0373
      3 C         140.5365  140.7039  164.1720 C.ar    1  UNL1        0.0023
      4 C         139.7794  140.1182  165.3269 C.ar    1  UNL1        0.0181
      5 C         140.1100  140.5353  166.7293 C.ar    1  UNL1        0.0082
      6 C         139.3529  139.9495  167.8842 C.ar    1  UNL1        0.0347
      7 BR        139.6835  140.3666  169.2866 Br      1  UNL1       -0.0490
      8 C         138.2652  138.9467  167.6367 C.ar    1  UNL1        0.0082
      9 C         137.9346  138.5296  166.2343 C.ar    1  UNL1        0.0197
     10 C         138.6917  139.1153  165.0794 C.ar    1  UNL1        0.0844
     11 N         138.3610  138.6982  163.6770 N.ar    1  UNL1       -0.2119
     12 C         139.1182  139.2840  162.5221 C.ar    1  UNL1        0.2211
     13 O         138.7875  138.8669  161.1197 O.3     1  UNL1       -0.4563
     14 C         137.7284  139.5984  160.3497 C.3     1  UNL1        0.2542
     15 C         140.6092  142.2365  161.1004 C.ar    1  UNL1       -0.0083
     16 C         139.6668  143.1091  161.8753 C.ar    1  UNL1        0.0539
     17 C         139.3130  144.4730  161.3611 C.ar    1  UNL1        0.2258
     18 N         139.9016  144.9644  160.0718 N.ar    1  UNL1       -0.1967
     19 C         140.8440  144.0918  159.2968 C.ar    1  UNL1        0.1346
     20 C         141.1978  142.7278  159.8112 C.ar    1  UNL1        0.0307
     21 N         141.4326  144.5831  158.0076 N.pl3   1  UNL1       -0.2897
     22 C         142.6835  143.9561  157.4673 C.3     1  UNL1        0.1136
     23 C         140.7702  145.7013  157.2588 C.3     1  UNL1        0.1136
     24 O         138.3707  145.3456  162.1360 O.3     1  UNL1       -0.4561
     25 C         137.5741  144.7687  163.2686 C.3     1  UNL1        0.2542
     26 C         142.0738  140.0943  160.9742 C.3     1  UNL1        0.1161
     27 O         141.1649  139.7330  159.8369 O.3     1  UNL1       -0.3820
     28 H         141.6463  139.1806  159.2012 H       1  UNL1        0.2107
     29 C         144.3560  142.2334  163.4167 C.ar    1  UNL1        0.2272
     30 C         143.4471  141.8721  162.2795 C.ar    1  UNL1        0.0559
     31 C         142.9827  140.4557  162.1114 C.ar    1  UNL1        0.0117
     32 C         143.4273  139.4007  163.0806 C.ar    1  UNL1        0.0559
     33 C         144.3362  139.7621  164.2178 C.ar    1  UNL1        0.2272
     34 N         144.8005  141.1784  164.3859 N.ar    1  UNL1       -0.1767
     35 C         143.8748  144.7849  163.3248 C.3     1  UNL1        0.2542
     36 O         144.8204  143.6499  163.5847 O.3     1  UNL1       -0.4561
     37 O         144.7807  138.7070  165.1870 O.3     1  UNL1       -0.4561
     38 C         143.8460  138.2324  166.2598 C.3     1  UNL1        0.2542
     39 C         143.1847  139.3161  160.3336 C.3     1  UNL1        0.0491
     40 C         143.6430  139.6647  158.9485 C.3     1  UNL1        0.0750
     41 N         143.3070  138.7627  157.7981 N.3     1  UNL1       -0.2702
     42 C         143.5198  139.2325  156.3896 C.3     1  UNL1        0.0897
     43 C         142.7581  137.3907  158.0563 C.3     1  UNL1        0.0897
@<TRIPOS>BOND
     1    35    36    1
     2    36    29    1
     3    29    30   ar
     4    30    31   ar
     5    31    26    1
     6    26    27    1
     7    26    39    1
     8    39    40    1
     9    40    41    1
    10    41    42    1
    11    41    43    1
    12    26     1    1
    13     1    15    1
    14    15    16   ar
    15    16    17   ar
    16    17    24    1
    17    24    25    1
    18    17    18   ar
    19    18    19   ar
    20    19    21    1
    21    21    22    1
    22    21    23    1
    23    19    20   ar
    24     1     2    1
    25     2     3   ar
    26     3     4   ar
    27     4     5   ar
    28     5     6   ar
    29     6     7    1
    30     6     8   ar
    31     8     9   ar
    32     9    10   ar
    33    10    11   ar
    34    11    12   ar
    35    12    13    1
    36    13    14    1
    37    31    32   ar
    38    32    33   ar
    39    33    37    1
    40    37    38    1
    41    33    34   ar
    42    34    29   ar
    43    20    15   ar
    44    12     2   ar
    45    10     4   ar
    46    27    28    1
@<TRIPOS>MOLECULE
*****
 43 46 0 0 0
SMALL
GASTEIGER

@<TRIPOS>ATOM
      1 C         140.1887  141.4101  161.7479 C.3     1  UNL1        0.0779
      2 C         139.8572  140.9738  163.1443 C.ar    1  UNL1        0.0373
      3 C         140.6863  141.4560  164.2975 C.ar    1  UNL1        0.0023
      4 C         140.3548  141.0197  165.6938 C.ar    1  UNL1        0.0181
      5 C         141.1840  141.5019  166.8471 C.ar    1  UNL1        0.0082
      6 C         140.8524  141.0655  168.2434 C.ar    1  UNL1        0.0347
      7 BR        141.6816  141.5477  169.3967 Br      1  UNL1       -0.0490
      8 C         139.6918  140.1470  168.4865 C.ar    1  UNL1        0.0082
      9 C         138.8626  139.6648  167.3333 C.ar    1  UNL1        0.0197
     10 C         139.1941  140.1011  165.9370 C.ar    1  UNL1        0.0844
     11 N         138.3649  139.6189  164.7837 N.ar    1  UNL1       -0.2119
     12 C         138.6965  140.0553  163.3874 C.ar    1  UNL1        0.2211
     13 O         137.8673  139.5731  162.2341 O.3     1  UNL1       -0.4563
     14 C         137.9251  138.1327  161.8193 C.3     1  UNL1        0.2542
     15 C         140.5237  140.3881  160.7024 C.ar    1  UNL1       -0.0083
     16 C         141.6290  139.4030  160.9435 C.ar    1  UNL1        0.0539
     17 C         141.9640  138.3810  159.8979 C.ar    1  UNL1        0.2258
     18 N         141.1937  138.3440  158.6113 N.ar    1  UNL1       -0.1967
     19 C         140.0885  139.3290  158.3703 C.ar    1  UNL1        0.1346
     20 C         139.7535  140.3511  159.4159 C.ar    1  UNL1        0.0307
     21 N         139.3182  139.2920  157.0837 N.pl3   1  UNL1       -0.2897
     22 C         138.3610  140.3978  156.7506 C.3     1  UNL1        0.1136
     23 C         139.5052  138.1493  156.1302 C.3     1  UNL1        0.1136
     24 O         143.0692  137.3959  160.1390 O.3     1  UNL1       -0.4561
     25 C         144.0537  137.6295  161.2464 C.3     1  UNL1        0.2542
     26 C         140.1853  142.8685  161.3972 C.3     1  UNL1        0.1161
     27 O         138.7208  142.9411  161.7133 O.3     1  UNL1       -0.3820
     28 H         138.4030  143.8459  161.5676 H       1  UNL1        0.2107
     29 C         144.1099  142.5126  161.8668 C.ar    1  UNL1        0.2272
     30 C         142.6454  142.5852  162.1830 C.ar    1  UNL1        0.0559
     31 C         141.6498  142.7960  161.0811 C.ar    1  UNL1        0.0117
     32 C         142.1187  142.9342  159.6630 C.ar    1  UNL1        0.0559
     33 C         143.5832  142.8616  159.3468 C.ar    1  UNL1        0.2272
     34 N         144.5788  142.6509  160.4488 N.ar    1  UNL1       -0.1767
     35 C         145.2517  140.9484  163.5988 C.3     1  UNL1        0.2542
     36 O         145.1055  142.3018  162.9688 O.3     1  UNL1       -0.4561
     37 O         144.0521  142.9999  157.9287 O.3     1  UNL1       -0.4561
     38 C         145.2627  142.2470  157.4623 C.3     1  UNL1        0.2542
     39 C         140.1818  144.3269  161.0465 C.3     1  UNL1        0.0491
     40 C         139.7902  145.3450  162.0762 C.3     1  UNL1        0.0750
     41 N         140.2280  145.1773  163.5010 N.3     1  UNL1       -0.2702
     42 C         139.2213  144.8377  164.5599 C.3     1  UNL1        0.0897
     43 C         141.6725  145.3492  163.8670 C.3     1  UNL1        0.0897
@<TRIPOS>BOND
     1    35    36    1
     2    36    29    1
     3    29    30   ar
     4    30    31   ar
     5    31    26    1
     6    26    27    1
     7    26    39    1
     8    39    40    1
     9    40    41    1
    10    41    42    1
    11    41    43    1
    12    26     1    1
    13     1    15    1
    14    15    16   ar
    15    16    17   ar
    16    17    24    1
    17    24    25    1
    18    17    18   ar
    19    18    19   ar
    20    19    21    1
    21    21    22    1
    22    21    23    1
    23    19    20   ar
    24     1     2    1
    25     2     3   ar
    26     3     4   ar
    27     4     5   ar
    28     5     6   ar
    29     6     7    1
    30     6     8   ar
    31     8     9   ar
    32     9    10   ar
    33    10    11   ar
    34    11    12   ar
    35    12    13    1
    36    13    14    1
    37    31    32   ar
    38    32    33   ar
    39    33    37    1
    40    37    38    1
    41    33    34   ar
    42    34    29   ar
    43    20    15   ar
    44    12     2   ar
    45    10     4   ar
    46    27    28    1
@<TRIPOS>MOLECULE
*****
 43 46 0 0 0
SMALL
GASTEIGER

@<TRIPOS>ATOM
      1 C         140.7210  142.0257  162.3772 C.3     1  UNL1        0.0779
      2 C         140.5948  142.2983  163.8468 C.ar    1  UNL1        0.0373
      3 C         140.9878  141.2462  164.8412 C.ar    1  UNL1        0.0023
      4 C         140.8616  141.5187  166.3108 C.ar    1  UNL1        0.0181
      5 C         141.2545  140.4666  167.3051 C.ar    1  UNL1        0.0082
      6 C         141.1283  140.7392  168.7748 C.ar    1  UNL1        0.0347
      7 BR        141.5213  139.6871  169.7691 Br      1  UNL1       -0.0490
      8 C         140.6092  142.0637  169.2500 C.ar    1  UNL1        0.0082
      9 C         140.2162  143.1158  168.2557 C.ar    1  UNL1        0.0197
     10 C         140.3424  142.8433  166.7861 C.ar    1  UNL1        0.0844
     11 N         139.9495  143.8954  165.7918 N.ar    1  UNL1       -0.2119
     12 C         140.0757  143.6229  164.3221 C.ar    1  UNL1        0.2211
     13 O         139.6827  144.6749  163.3278 O.3     1  UNL1       -0.4563
     14 C         140.7155  145.6186  162.7866 C.3     1  UNL1        0.2542
     15 C         142.0410  142.2140  161.6901 C.ar    1  UNL1       -0.0083
     16 C         143.3178  141.9705  162.4388 C.ar    1  UNL1        0.0539
     17 C         144.6378  142.1588  161.7518 C.ar    1  UNL1        0.2258
     18 N         144.6811  142.5907  160.3159 N.ar    1  UNL1       -0.1967
     19 C         143.4043  142.8342  159.5672 C.ar    1  UNL1        0.1346
     20 C         142.0843  142.6459  160.2543 C.ar    1  UNL1        0.0307
     21 N         143.4476  143.2661  158.1314 N.pl3   1  UNL1       -0.2897
     22 C         144.3463  142.5574  157.1618 C.3     1  UNL1        0.1136
     23 C         142.5921  144.4067  157.6651 C.3     1  UNL1        0.1136
     24 O         145.9145  141.9152  162.5005 O.3     1  UNL1       -0.4561
     25 C         145.8710  141.4348  163.9209 C.3     1  UNL1        0.2542
     26 C         139.5272  141.5649  161.5946 C.3     1  UNL1        0.1161
     27 O         139.2191  142.9862  161.2275 O.3     1  UNL1       -0.3820
     28 H         138.4249  143.0116  160.6712 H       1  UNL1        0.2107
     29 C         139.3480  138.0346  163.3988 C.ar    1  UNL1        0.2272
     30 C         139.0399  139.4560  163.0317 C.ar    1  UNL1        0.0559
     31 C         139.8352  140.1435  161.9618 C.ar    1  UNL1        0.0117
     32 C         140.9386  139.4096  161.2590 C.ar    1  UNL1        0.0559
     33 C         141.2467  137.9882  161.6261 C.ar    1  UNL1        0.2272
     34 N         140.4514  137.3007  162.6960 N.ar    1  UNL1       -0.1767
     35 C         138.4643  137.9477  165.8405 C.3     1  UNL1        0.2542
     36 O         138.5526  137.3471  164.4688 O.3     1  UNL1       -0.4561
     37 O         142.3501  137.2543  160.9233 O.3     1  UNL1       -0.4561
     38 C         142.8608  137.7528  159.6039 C.3     1  UNL1        0.2542
     39 C         138.3334  141.1040  160.8121 C.3     1  UNL1        0.0491
     40 C         138.0609  141.6767  159.4527 C.3     1  UNL1        0.0750
     41 N         138.0949  140.7888  158.2442 N.3     1  UNL1       -0.2702
     42 C         139.0819  139.6618  158.1691 C.3     1  UNL1        0.0897
     43 C         137.1418  141.0280  157.1109 C.3     1  UNL1        0.0897
@<TRIPOS>BOND
     1    35    36    1
     2    36    29    1
     3    29    30   ar
     4    30    31   ar
     5    31    26    1
     6    26    27    1
     7    26    39    1
     8    39    40    1
     9    40    41    1
    10    41    42    1
    11    41    43    1
    12    26     1    1
    13     1    15    1
    14    15    16   ar
    15    16    17   ar
    16    17    24    1
    17    24    25    1
    18    17    18   ar
    19    18    19   ar
    20    19    21    1
    21    21    22    1
    22    21    23    1
    23    19    20   ar
    24     1     2    1
    25     2     3   ar
    26     3     4   ar
    27     4     5   ar
    28     5     6   ar
    29     6     7    1
    30     6     8   ar
    31     8     9   ar
    32     9    10   ar
    33    10    11   ar
    34    11    12   ar
    35    12    13    1
    36    13    14    1
    37    31    32   ar
    38    32    33   ar
    39    33    37    1
    40    37    38    1
    41    33    34   ar
    42    34    29   ar
    43    20    15   ar
    44    12     2   ar
    45    10     4   ar
    46    27    28    1
@<TRIPOS>MOLECULE
*****
 43 46 0 0 0
SMALL
GASTEIGER

@<TRIPOS>ATOM
      1 C         141.3916  142.2729  162.6194 C.3     1  UNL1        0.0779
      2 C         141.8232  142.2421  164.0557 C.ar    1  UNL1        0.0373
      3 C         140.9195  141.6528  165.0979 C.ar    1  UNL1        0.0023
      4 C         141.3511  141.6220  166.5341 C.ar    1  UNL1        0.0181
      5 C         140.4475  141.0327  167.5763 C.ar    1  UNL1        0.0082
      6 C         140.8791  141.0019  169.0126 C.ar    1  UNL1        0.0347
      7 BR        139.9755  140.4127  170.0548 Br      1  UNL1       -0.0490
      8 C         142.2143  141.5603  169.4066 C.ar    1  UNL1        0.0082
      9 C         143.1180  142.1496  168.3644 C.ar    1  UNL1        0.0197
     10 C         142.6864  142.1804  166.9282 C.ar    1  UNL1        0.0844
     11 N         143.5901  142.7697  165.8860 N.ar    1  UNL1       -0.2119
     12 C         143.1584  142.8005  164.4497 C.ar    1  UNL1        0.2211
     13 O         144.0621  143.3898  163.4075 O.3     1  UNL1       -0.4563
     14 C         144.0069  144.8591  163.1110 C.3     1  UNL1        0.2542
     15 C         142.2457  141.6327  161.5657 C.ar    1  UNL1       -0.0083
     16 C         142.6553  140.1962  161.7029 C.ar    1  UNL1        0.0539
     17 C         143.5095  139.5560  160.6491 C.ar    1  UNL1        0.2258
     18 N         143.9541  140.3522  159.4581 N.ar    1  UNL1       -0.1967
     19 C         143.5446  141.7886  159.3209 C.ar    1  UNL1        0.1346
     20 C         142.6903  142.4289  160.3748 C.ar    1  UNL1        0.0307
     21 N         143.9892  142.5848  158.1300 N.pl3   1  UNL1       -0.2897
     22 C         143.0040  143.4392  157.3888 C.3     1  UNL1        0.1136
     23 C         145.4190  142.5267  157.6803 C.3     1  UNL1        0.1136
     24 O         143.9190  138.1195  160.7863 O.3     1  UNL1       -0.4561
     25 C         143.1475  137.0483  160.0739 C.3     1  UNL1        0.2542
     26 C         140.1057  142.9440  162.2370 C.3     1  UNL1        0.1161
     27 O         140.6637  144.2646  162.6784 O.3     1  UNL1       -0.3820
     28 H         140.0000  144.9584  162.5403 H       1  UNL1        0.2107
     29 C         138.6593  140.0737  159.9091 C.ar    1  UNL1        0.2272
     30 C         139.2173  141.3942  160.3505 C.ar    1  UNL1        0.0559
     31 C         139.5478  141.6235  161.7956 C.ar    1  UNL1        0.0117
     32 C         139.3203  140.5322  162.7992 C.ar    1  UNL1        0.0559
     33 C         138.7624  139.2116  162.3578 C.ar    1  UNL1        0.2272
     34 N         138.4319  138.9824  160.9128 N.ar    1  UNL1       -0.1767
     35 C         137.7390  140.9537  157.6445 C.3     1  UNL1        0.2542
     36 O         138.3288  139.8444  158.4640 O.3     1  UNL1       -0.4561
     37 O         138.5350  138.1203  163.3615 O.3     1  UNL1       -0.4561
     38 C         139.2892  138.1248  164.6581 C.3     1  UNL1        0.2542
     39 C         138.8199  143.6151  161.8545 C.3     1  UNL1        0.0491
     40 C         138.0862  144.4567  162.8564 C.3     1  UNL1        0.0750
     41 N         138.0383  144.0380  164.2959 N.3     1  UNL1       -0.2702
     42 C         137.4106  142.7297  164.6760 C.3     1  UNL1        0.0897
     43 C         138.6181  144.9276  165.3555 C.3     1  UNL1        0.0897
@<TRIPOS>BOND
     1    35    36    1
     2    36    29    1
     3    29    30   ar
     4    30    31   ar
     5    31    26    1
     6    26    27    1
     7    26    39    1
     8    39    40    1
     9    40    41    1
    10    41    42    1
    11    41    43    1
    12    26     1    1
    13     1    15    1
    14    15    16   ar
    15    16    17   ar
    16    17    24    1
    17    24    25    1
    18    17    18   ar
    19    18    19   ar
    20    19    21    1
    21    21    22    1
    22    21    23    1
    23    19    20   ar
    24     1     2    1
    25     2     3   ar
    26     3     4   ar
    27     4     5   ar
    28     5     6   ar
    29     6     7    1
    30     6     8   ar
    31     8     9   ar
    32     9    10   ar
    33    10    11   ar
    34    11    12   ar
    35    12    13    1
    36    13    14    1
    37    31    32   ar
    38    32    33   ar
    39    33    37    1
    40    37    38    1
    41    33    34   ar
    42    34    29   ar
    43    20    15   ar
    44    12     2   ar
    45    10     4   ar
    46    27    28    1
