@<TRIPOS>MOLECULE
*****
 30 33 0 0 0
SMALL
GASTEIGER

@<TRIPOS>ATOM
      1 C         139.6071  139.0220  165.0107 C.ar    1  UNL1        0.0040
      2 C         140.4874  137.8700  164.6259 C.ar    1  UNL1        0.0208
      3 C         140.3322  137.2241  163.2810 C.ar    1  UNL1        0.1003
      4 N         139.2967  137.7302  162.3209 N.ar    1  UNL1       -0.2294
      5 C         138.4164  138.8822  162.7058 C.ar    1  UNL1        0.1288
      6 C         138.5717  139.5281  164.0507 C.ar    1  UNL1        0.0341
      7 C         137.6122  138.4658  167.1812 C.3     1  UNL1        0.0310
      8 C         138.7649  139.3898  167.4408 C.ar    1  UNL1       -0.0212
      9 C         138.9202  140.0357  168.7857 C.ar    1  UNL1        0.0060
     10 C         140.0729  140.9596  169.0454 C.ar    1  UNL1        0.0681
     11 C         141.0704  141.2378  167.9602 C.ar    1  UNL1        0.0103
     12 C         140.9151  140.5919  166.6153 C.ar    1  UNL1        0.0004
     13 C         139.7624  139.6679  166.3557 C.ar    1  UNL1       -0.0038
     14 C         140.2281  141.6055  170.3903 C.1     1  UNL1        0.1004
     15 N         140.3834  142.2514  171.7352 N.1     1  UNL1       -0.1908
     16 N         137.3810  139.3883  161.7457 N.pl3   1  UNL1       -0.3134
     17 H         136.4671  139.0229  161.7697 H       1  UNL1        0.1485
     18 C         137.7379  140.4510  160.7492 C.3     1  UNL1        0.1338
     19 C         138.4081  141.7129  161.2061 C.2     1  UNL1        0.0986
     20 N         137.7519  143.0526  161.3632 N.2     1  UNL1       -0.1536
     21 N         138.7903  144.0243  161.8402 N.2     1  UNL1       -0.1498
     22 C         140.0883  143.2851  161.9779 C.2     1  UNL1        0.1183
     23 C         139.8520  141.8566  161.5860 C.3     1  UNL1        0.1620
     24 CL        140.8794  140.7638  161.5758 Cl      1  UNL1       -0.1021
     25 C         141.3933  143.8715  162.4284 C.ar    1  UNL1        0.0981
     26 C         141.4131  144.9288  163.4922 C.ar    1  UNL1        0.0205
     27 C         142.7181  145.5152  163.9428 C.ar    1  UNL1        0.0032
     28 C         144.0034  145.0443  163.3295 C.ar    1  UNL1        0.0207
     29 C         143.9837  143.9869  162.2656 C.ar    1  UNL1        0.0989
     30 N         142.6786  143.4006  161.8151 N.ar    1  UNL1       -0.2425
@<TRIPOS>BOND
     1     7     8    1
     2     8     9   ar
     3     9    10   ar
     4    10    14    1
     5    14    15    3
     6    10    11   ar
     7    11    12   ar
     8    12    13   ar
     9    13     1    1
    10     1     2   ar
    11     2     3   ar
    12     3     4   ar
    13     4     5   ar
    14     5    16    1
    15    16    18    1
    16    18    19    1
    17    19    20    2
    18    20    21    1
    19    21    22    2
    20    22    25    1
    21    25    26   ar
    22    26    27   ar
    23    27    28   ar
    24    28    29   ar
    25    29    30   ar
    26    22    23    1
    27    23    24    1
    28     5     6   ar
    29    13     8   ar
    30     6     1   ar
    31    23    19    1
    32    30    25   ar
    33    16    17    1
@<TRIPOS>MOLECULE
*****
 30 33 0 0 0
SMALL
GASTEIGER

@<TRIPOS>ATOM
      1 C         143.3340  142.3969  165.0096 C.ar    1  UNL1        0.0040
      2 C         143.7548  143.6252  164.2585 C.ar    1  UNL1        0.0208
      3 C         144.5480  143.4949  162.9921 C.ar    1  UNL1        0.1003
      4 N         144.9205  142.1363  162.4768 N.ar    1  UNL1       -0.2294
      5 C         144.4997  140.9080  163.2279 C.ar    1  UNL1        0.1288
      6 C         143.7065  141.0383  164.4943 C.ar    1  UNL1        0.0341
      7 C         140.3851  142.9336  164.8840 C.3     1  UNL1        0.0310
      8 C         141.0663  142.7955  166.2133 C.ar    1  UNL1       -0.0212
      9 C         140.2731  142.9258  167.4797 C.ar    1  UNL1        0.0060
     10 C         140.9544  142.7877  168.8089 C.ar    1  UNL1        0.0681
     11 C         142.4288  142.5194  168.8717 C.ar    1  UNL1        0.0103
     12 C         143.2220  142.3891  167.6053 C.ar    1  UNL1        0.0004
     13 C         142.5408  142.5272  166.2761 C.ar    1  UNL1       -0.0038
     14 C         140.1611  142.9180  170.0753 C.1     1  UNL1        0.1004
     15 N         139.3678  143.0483  171.3417 N.1     1  UNL1       -0.1908
     16 N         144.8722  139.5494  162.7126 N.pl3   1  UNL1       -0.3134
     17 H         145.8153  139.2671  162.7057 H       1  UNL1        0.1485
     18 C         143.8076  138.6211  162.2078 C.3     1  UNL1        0.1338
     19 C         142.3819  138.8131  162.6327 C.2     1  UNL1        0.0986
     20 N         141.2963  139.4482  161.8153 N.2     1  UNL1       -0.1536
     21 N         140.0349  139.4314  162.6268 N.2     1  UNL1       -0.1498
     22 C         140.3410  138.7859  163.9458 C.2     1  UNL1        0.1183
     23 C         141.7915  138.4038  163.9494 C.3     1  UNL1        0.1620
     24 CL        142.5230  137.7305  165.0726 Cl      1  UNL1       -0.1021
     25 C         139.3674  138.5618  165.0648 C.ar    1  UNL1        0.0981
     26 C         139.0633  139.6710  166.0277 C.ar    1  UNL1        0.0205
     27 C         138.0897  139.4469  167.1466 C.ar    1  UNL1        0.0032
     28 C         137.4203  138.1138  167.3026 C.ar    1  UNL1        0.0207
     29 C         137.7245  137.0045  166.3397 C.ar    1  UNL1        0.0989
     30 N         138.6980  137.2286  165.2207 N.ar    1  UNL1       -0.2425
@<TRIPOS>BOND
     1     7     8    1
     2     8     9   ar
     3     9    10   ar
     4    10    14    1
     5    14    15    3
     6    10    11   ar
     7    11    12   ar
     8    12    13   ar
     9    13     1    1
    10     1     2   ar
    11     2     3   ar
    12     3     4   ar
    13     4     5   ar
    14     5    16    1
    15    16    18    1
    16    18    19    1
    17    19    20    2
    18    20    21    1
    19    21    22    2
    20    22    25    1
    21    25    26   ar
    22    26    27   ar
    23    27    28   ar
    24    28    29   ar
    25    29    30   ar
    26    22    23    1
    27    23    24    1
    28     5     6   ar
    29    13     8   ar
    30     6     1   ar
    31    23    19    1
    32    30    25   ar
    33    16    17    1
@<TRIPOS>MOLECULE
*****
 30 33 0 0 0
SMALL
GASTEIGER

@<TRIPOS>ATOM
      1 C         139.8176  138.8730  165.0751 C.ar    1  UNL1        0.0040
      2 C         140.7758  137.7925  164.6696 C.ar    1  UNL1        0.0208
      3 C         140.6463  137.1413  163.3246 C.ar    1  UNL1        0.1003
      4 N         139.5586  137.5705  162.3850 N.ar    1  UNL1       -0.2294
      5 C         138.6004  138.6510  162.7905 C.ar    1  UNL1        0.1288
      6 C         138.7299  139.3023  164.1356 C.ar    1  UNL1        0.0341
      7 C         137.6599  138.5158  167.1287 C.3     1  UNL1        0.0310
      8 C         138.8683  139.3456  167.4470 C.ar    1  UNL1       -0.0212
      9 C         138.9979  139.9968  168.7920 C.ar    1  UNL1        0.0060
     10 C         140.2062  140.8266  169.1102 C.ar    1  UNL1        0.0681
     11 C         141.2850  141.0052  168.0835 C.ar    1  UNL1        0.0103
     12 C         141.1555  140.3540  166.7385 C.ar    1  UNL1        0.0004
     13 C         139.9471  139.5242  166.4202 C.ar    1  UNL1       -0.0038
     14 C         140.3358  141.4778  170.4553 C.1     1  UNL1        0.1004
     15 N         140.4653  142.1291  171.8003 N.1     1  UNL1       -0.1908
     16 N         137.5127  139.0803  161.8511 N.pl3   1  UNL1       -0.3134
     17 H         136.6386  138.6277  161.8703 H       1  UNL1        0.1485
     18 C         137.7569  140.1991  160.8823 C.3     1  UNL1        0.1338
     19 C         139.0980  140.8694  160.8330 C.2     1  UNL1        0.0986
     20 N         140.1525  140.6557  159.7879 N.2     1  UNL1       -0.1536
     21 N         141.3262  141.5252  160.1291 N.2     1  UNL1       -0.1498
     22 C         140.9970  142.2762  161.3851 C.2     1  UNL1        0.1183
     23 C         139.6199  141.8709  161.8202 C.3     1  UNL1        0.1620
     24 CL        138.8925  142.3781  163.0300 Cl      1  UNL1       -0.1021
     25 C         141.8885  143.2599  162.0835 C.ar    1  UNL1        0.0981
     26 C         143.3787  143.1403  161.9606 C.ar    1  UNL1        0.0205
     27 C         144.2701  144.1240  162.6590 C.ar    1  UNL1        0.0032
     28 C         143.6714  145.2271  163.4803 C.ar    1  UNL1        0.0207
     29 C         142.1812  145.3467  163.6032 C.ar    1  UNL1        0.0989
     30 N         141.2898  144.3630  162.9048 N.ar    1  UNL1       -0.2425
@<TRIPOS>BOND
     1     7     8    1
     2     8     9   ar
     3     9    10   ar
     4    10    14    1
     5    14    15    3
     6    10    11   ar
     7    11    12   ar
     8    12    13   ar
     9    13     1    1
    10     1     2   ar
    11     2     3   ar
    12     3     4   ar
    13     4     5   ar
    14     5    16    1
    15    16    18    1
    16    18    19    1
    17    19    20    2
    18    20    21    1
    19    21    22    2
    20    22    25    1
    21    25    26   ar
    22    26    27   ar
    23    27    28   ar
    24    28    29   ar
    25    29    30   ar
    26    22    23    1
    27    23    24    1
    28     5     6   ar
    29    13     8   ar
    30     6     1   ar
    31    23    19    1
    32    30    25   ar
    33    16    17    1
@<TRIPOS>MOLECULE
*****
 30 33 0 0 0
SMALL
GASTEIGER

@<TRIPOS>ATOM
      1 C         140.5855  139.2546  165.2614 C.ar    1  UNL1        0.0040
      2 C         141.8803  138.5405  165.0094 C.ar    1  UNL1        0.0208
      3 C         141.9488  137.4532  163.9784 C.ar    1  UNL1        0.1003
      4 N         140.7225  137.0799  163.1993 N.ar    1  UNL1       -0.2294
      5 C         139.4277  137.7941  163.4512 C.ar    1  UNL1        0.1288
      6 C         139.3592  138.8814  164.4823 C.ar    1  UNL1        0.0341
      7 C         141.1459  142.0972  164.4833 C.3     1  UNL1        0.0310
      8 C         140.7972  141.7632  165.9034 C.ar    1  UNL1       -0.0212
      9 C         140.7287  142.8504  166.9345 C.ar    1  UNL1        0.0060
     10 C         140.3799  142.5164  168.3546 C.ar    1  UNL1        0.0681
     11 C         140.0997  141.0951  168.7437 C.ar    1  UNL1        0.0103
     12 C         140.1682  140.0079  167.7126 C.ar    1  UNL1        0.0004
     13 C         140.5169  140.3419  166.2925 C.ar    1  UNL1       -0.0038
     14 C         140.3114  143.6038  169.3857 C.1     1  UNL1        0.1004
     15 N         140.2429  144.6910  170.4167 N.1     1  UNL1       -0.1908
     16 N         138.2014  137.4209  162.6722 N.pl3   1  UNL1       -0.3134
     17 H         137.6640  136.6419  162.9434 H       1  UNL1        0.1485
     18 C         137.7940  138.2346  161.4798 C.3     1  UNL1        0.1338
     19 C         138.5765  139.4579  161.1037 C.2     1  UNL1        0.0986
     20 N         139.7130  139.5115  160.1263 N.2     1  UNL1       -0.1536
     21 N         140.1988  140.9290  160.0575 N.2     1  UNL1       -0.1498
     22 C         139.3624  141.7515  160.9924 C.2     1  UNL1        0.1183
     23 C         138.3598  140.8423  161.6390 C.3     1  UNL1        0.1620
     24 CL        137.3226  141.2466  162.6444 Cl      1  UNL1       -0.1021
     25 C         139.5039  143.2245  161.2377 C.ar    1  UNL1        0.0981
     26 C         140.2358  144.0826  160.2487 C.ar    1  UNL1        0.0205
     27 C         140.3772  145.5557  160.4940 C.ar    1  UNL1        0.0032
     28 C         139.7868  146.1705  161.7281 C.ar    1  UNL1        0.0207
     29 C         139.0548  145.3124  162.7171 C.ar    1  UNL1        0.0989
     30 N         138.9134  143.8394  162.4718 N.ar    1  UNL1       -0.2425
@<TRIPOS>BOND
     1     7     8    1
     2     8     9   ar
     3     9    10   ar
     4    10    14    1
     5    14    15    3
     6    10    11   ar
     7    11    12   ar
     8    12    13   ar
     9    13     1    1
    10     1     2   ar
    11     2     3   ar
    12     3     4   ar
    13     4     5   ar
    14     5    16    1
    15    16    18    1
    16    18    19    1
    17    19    20    2
    18    20    21    1
    19    21    22    2
    20    22    25    1
    21    25    26   ar
    22    26    27   ar
    23    27    28   ar
    24    28    29   ar
    25    29    30   ar
    26    22    23    1
    27    23    24    1
    28     5     6   ar
    29    13     8   ar
    30     6     1   ar
    31    23    19    1
    32    30    25   ar
    33    16    17    1
@<TRIPOS>MOLECULE
*****
 30 33 0 0 0
SMALL
GASTEIGER

@<TRIPOS>ATOM
      1 C         141.7598  138.7653  165.0645 C.ar    1  UNL1        0.0040
      2 C         140.6087  137.9072  164.6300 C.ar    1  UNL1        0.0208
      3 C         140.6521  137.2101  163.3026 C.ar    1  UNL1        0.1003
      4 N         141.8466  137.3709  162.4097 N.ar    1  UNL1       -0.2294
      5 C         142.9977  138.2290  162.8442 C.ar    1  UNL1        0.1288
      6 C         142.9543  138.9261  164.1717 C.ar    1  UNL1        0.0341
      7 C         139.7273  140.9145  165.5644 C.3     1  UNL1        0.0310
      8 C         140.7001  140.5370  166.6419 C.ar    1  UNL1       -0.0212
      9 C         140.6567  141.2341  167.9694 C.ar    1  UNL1        0.0060
     10 C         141.6296  140.8566  169.0469 C.ar    1  UNL1        0.0681
     11 C         142.6458  139.7820  168.7970 C.ar    1  UNL1        0.0103
     12 C         142.6892  139.0849  167.4696 C.ar    1  UNL1        0.0004
     13 C         141.7164  139.4624  166.3920 C.ar    1  UNL1       -0.0038
     14 C         141.5861  141.5538  170.3744 C.1     1  UNL1        0.1004
     15 N         141.5428  142.2509  171.7018 N.1     1  UNL1       -0.1908
     16 N         144.1922  138.3898  161.9513 N.pl3   1  UNL1       -0.3134
     17 H         144.9848  137.8207  162.0821 H       1  UNL1        0.1485
     18 C         144.1790  139.4178  160.8591 C.3     1  UNL1        0.1338
     19 C         143.8907  140.8536  161.1839 C.2     1  UNL1        0.0986
     20 N         144.9116  141.9169  161.4619 N.2     1  UNL1       -0.1536
     21 N         144.1828  143.1986  161.7375 N.2     1  UNL1       -0.1498
     22 C         142.7114  142.9275  161.6298 C.2     1  UNL1        0.1183
     23 C         142.5309  141.4782  161.2877 C.3     1  UNL1        0.1620
     24 CL        141.2206  140.7768  161.0849 Cl      1  UNL1       -0.1021
     25 C         141.6133  143.9297  161.8293 C.ar    1  UNL1        0.0981
     26 C         140.9030  144.0115  163.1479 C.ar    1  UNL1        0.0205
     27 C         139.8049  145.0137  163.3474 C.ar    1  UNL1        0.0032
     28 C         139.4172  145.9340  162.2283 C.ar    1  UNL1        0.0207
     29 C         140.1275  145.8523  160.9096 C.ar    1  UNL1        0.0989
     30 N         141.2256  144.8500  160.7102 N.ar    1  UNL1       -0.2425
@<TRIPOS>BOND
     1     7     8    1
     2     8     9   ar
     3     9    10   ar
     4    10    14    1
     5    14    15    3
     6    10    11   ar
     7    11    12   ar
     8    12    13   ar
     9    13     1    1
    10     1     2   ar
    11     2     3   ar
    12     3     4   ar
    13     4     5   ar
    14     5    16    1
    15    16    18    1
    16    18    19    1
    17    19    20    2
    18    20    21    1
    19    21    22    2
    20    22    25    1
    21    25    26   ar
    22    26    27   ar
    23    27    28   ar
    24    28    29   ar
    25    29    30   ar
    26    22    23    1
    27    23    24    1
    28     5     6   ar
    29    13     8   ar
    30     6     1   ar
    31    23    19    1
    32    30    25   ar
    33    16    17    1
@<TRIPOS>MOLECULE
*****
 30 33 0 0 0
SMALL
GASTEIGER

@<TRIPOS>ATOM
      1 C         139.4281  139.5230  164.9033 C.ar    1  UNL1        0.0040
      2 C         138.2058  139.9166  164.1280 C.ar    1  UNL1        0.0208
      3 C         138.0029  139.4000  162.7345 C.ar    1  UNL1        0.1003
      4 N         139.0224  138.4897  162.1162 N.ar    1  UNL1       -0.2294
      5 C         140.2447  138.0962  162.8915 C.ar    1  UNL1        0.1288
      6 C         140.4475  138.6128  164.2851 C.ar    1  UNL1        0.0341
      7 C         137.7684  138.4464  167.1586 C.3     1  UNL1        0.0310
      8 C         138.8011  139.5014  167.4245 C.ar    1  UNL1       -0.0212
      9 C         139.0039  140.0181  168.8180 C.ar    1  UNL1        0.0060
     10 C         140.0366  141.0730  169.0838 C.ar    1  UNL1        0.0681
     11 C         140.8664  141.6113  167.9562 C.ar    1  UNL1        0.0103
     12 C         140.6635  141.0947  166.5627 C.ar    1  UNL1        0.0004
     13 C         139.6309  140.0397  166.2969 C.ar    1  UNL1       -0.0038
     14 C         140.2394  141.5897  170.4774 C.1     1  UNL1        0.1004
     15 N         140.4421  142.1064  171.8709 N.1     1  UNL1       -0.1908
     16 N         141.2642  137.1860  162.2733 N.pl3   1  UNL1       -0.3134
     17 H         141.1111  136.2136  162.2582 H       1  UNL1        0.1485
     18 C         142.5168  137.7574  161.6781 C.3     1  UNL1        0.1338
     19 C         143.2790  138.8205  162.4124 C.2     1  UNL1        0.0986
     20 N         144.5295  138.6139  163.2146 N.2     1  UNL1       -0.1536
     21 N         144.9478  139.9424  163.7714 N.2     1  UNL1       -0.1498
     22 C         143.9557  140.9701  163.3134 C.2     1  UNL1        0.1183
     23 C         142.9244  140.2766  162.4735 C.3     1  UNL1        0.1620
     24 CL        141.7454  140.9255  161.8109 Cl      1  UNL1       -0.1021
     25 C         143.9892  142.4341  163.6382 C.ar    1  UNL1        0.0981
     26 C         144.3496  142.8873  165.0219 C.ar    1  UNL1        0.0205
     27 C         144.3831  144.3513  165.3468 C.ar    1  UNL1        0.0032
     28 C         144.0561  145.3621  164.2879 C.ar    1  UNL1        0.0207
     29 C         143.6956  144.9089  162.9041 C.ar    1  UNL1        0.0989
     30 N         143.6622  143.4449  162.5793 N.ar    1  UNL1       -0.2425
@<TRIPOS>BOND
     1     7     8    1
     2     8     9   ar
     3     9    10   ar
     4    10    14    1
     5    14    15    3
     6    10    11   ar
     7    11    12   ar
     8    12    13   ar
     9    13     1    1
    10     1     2   ar
    11     2     3   ar
    12     3     4   ar
    13     4     5   ar
    14     5    16    1
    15    16    18    1
    16    18    19    1
    17    19    20    2
    18    20    21    1
    19    21    22    2
    20    22    25    1
    21    25    26   ar
    22    26    27   ar
    23    27    28   ar
    24    28    29   ar
    25    29    30   ar
    26    22    23    1
    27    23    24    1
    28     5     6   ar
    29    13     8   ar
    30     6     1   ar
    31    23    19    1
    32    30    25   ar
    33    16    17    1
@<TRIPOS>MOLECULE
*****
 30 33 0 0 0
SMALL
GASTEIGER

@<TRIPOS>ATOM
      1 C         142.9884  139.7697  165.3019 C.ar    1  UNL1        0.0040
      2 C         144.3171  140.2281  164.7780 C.ar    1  UNL1        0.0208
      3 C         144.7995  139.7538  163.4392 C.ar    1  UNL1        0.1003
      4 N         143.9532  138.8212  162.6243 N.ar    1  UNL1       -0.2294
      5 C         142.6245  138.3629  163.1482 C.ar    1  UNL1        0.1288
      6 C         142.1421  138.8372  164.4871 C.ar    1  UNL1        0.0341
      7 C         141.6352  142.4356  165.5506 C.3     1  UNL1        0.0310
      8 C         141.8294  141.5770  166.7651 C.ar    1  UNL1       -0.0212
      9 C         141.3471  142.0512  168.1039 C.ar    1  UNL1        0.0060
     10 C         141.5414  141.1925  169.3184 C.ar    1  UNL1        0.0681
     11 C         142.2180  139.8596  169.1940 C.ar    1  UNL1        0.0103
     12 C         142.7003  139.3854  167.8552 C.ar    1  UNL1        0.0004
     13 C         142.5060  140.2441  166.6408 C.ar    1  UNL1       -0.0038
     14 C         141.0590  141.6668  170.6572 C.1     1  UNL1        0.1004
     15 N         140.5767  142.1412  171.9960 N.1     1  UNL1       -0.1908
     16 N         141.7781  137.4303  162.3334 N.pl3   1  UNL1       -0.3134
     17 H         141.8719  136.4566  162.4442 H       1  UNL1        0.1485
     18 C         140.7889  137.9813  161.3497 C.3     1  UNL1        0.1338
     19 C         140.0674  139.2620  161.6490 C.2     1  UNL1        0.0986
     20 N         138.6944  139.3828  162.2410 N.2     1  UNL1       -0.1536
     21 N         138.3706  140.8420  162.3667 N.2     1  UNL1       -0.1498
     22 C         139.5435  141.6230  161.8523 C.2     1  UNL1        0.1183
     23 C         140.5921  140.6465  161.4087 C.3     1  UNL1        0.1620
     24 CL        141.9305  140.9936  160.8271 Cl      1  UNL1       -0.1021
     25 C         139.6492  143.1181  161.7921 C.ar    1  UNL1        0.0981
     26 C         139.3036  143.9435  162.9959 C.ar    1  UNL1        0.0205
     27 C         139.4092  145.4386  162.9357 C.ar    1  UNL1        0.0032
     28 C         139.8605  146.1082  161.6716 C.ar    1  UNL1        0.0207
     29 C         140.2061  145.2828  160.4677 C.ar    1  UNL1        0.0989
     30 N         140.1004  143.7877  160.5280 N.ar    1  UNL1       -0.2425
@<TRIPOS>BOND
     1     7     8    1
     2     8     9   ar
     3     9    10   ar
     4    10    14    1
     5    14    15    3
     6    10    11   ar
     7    11    12   ar
     8    12    13   ar
     9    13     1    1
    10     1     2   ar
    11     2     3   ar
    12     3     4   ar
    13     4     5   ar
    14     5    16    1
    15    16    18    1
    16    18    19    1
    17    19    20    2
    18    20    21    1
    19    21    22    2
    20    22    25    1
    21    25    26   ar
    22    26    27   ar
    23    27    28   ar
    24    28    29   ar
    25    29    30   ar
    26    22    23    1
    27    23    24    1
    28     5     6   ar
    29    13     8   ar
    30     6     1   ar
    31    23    19    1
    32    30    25   ar
    33    16    17    1
@<TRIPOS>MOLECULE
*****
 30 33 0 0 0
SMALL
GASTEIGER

@<TRIPOS>ATOM
      1 C         140.6668  139.2252  165.7860 C.ar    1  UNL1        0.0040
      2 C         139.2456  138.7492  165.8452 C.ar    1  UNL1        0.0208
      3 C         138.7189  137.8264  164.7865 C.ar    1  UNL1        0.1003
      4 N         139.6135  137.3796  163.6684 N.ar    1  UNL1       -0.2294
      5 C         141.0347  137.8556  163.6091 C.ar    1  UNL1        0.1288
      6 C         141.5614  138.7785  164.6679 C.ar    1  UNL1        0.0341
      7 C         139.7936  142.0948  165.8443 C.3     1  UNL1        0.0310
      8 C         140.7568  141.5828  166.8739 C.ar    1  UNL1       -0.0212
      9 C         141.2834  142.5056  167.9327 C.ar    1  UNL1        0.0060
     10 C         142.2466  141.9937  168.9624 C.ar    1  UNL1        0.0681
     11 C         142.6832  140.5589  168.9332 C.ar    1  UNL1        0.0103
     12 C         142.1566  139.6362  167.8744 C.ar    1  UNL1        0.0004
     13 C         141.1934  140.1481  166.8448 C.ar    1  UNL1       -0.0038
     14 C         142.7733  142.9165  170.0212 C.1     1  UNL1        0.1004
     15 N         143.2999  143.8393  171.0800 N.1     1  UNL1       -0.1908
     16 N         141.9293  137.4088  162.4910 N.pl3   1  UNL1       -0.3134
     17 H         142.3726  136.5309  162.5361 H       1  UNL1        0.1485
     18 C         142.1486  138.2996  161.3043 C.3     1  UNL1        0.1338
     19 C         141.2295  139.4590  161.0568 C.2     1  UNL1        0.0986
     20 N         139.9239  139.4075  160.3201 N.2     1  UNL1       -0.1536
     21 N         139.3421  140.7900  160.3105 N.2     1  UNL1       -0.1498
     22 C         140.2882  141.6960  161.0414 C.2     1  UNL1        0.1183
     23 C         141.4546  140.8734  161.5026 C.3     1  UNL1        0.1620
     24 CL        142.6383  141.3768  162.2742 Cl      1  UNL1       -0.1021
     25 C         140.1007  143.1665  161.2708 C.ar    1  UNL1        0.0981
     26 C         139.4809  143.6535  162.5469 C.ar    1  UNL1        0.0205
     27 C         139.2934  145.1240  162.7763 C.ar    1  UNL1        0.0032
     28 C         139.7257  146.1073  161.7295 C.ar    1  UNL1        0.0207
     29 C         140.3456  145.6204  160.4532 C.ar    1  UNL1        0.0989
     30 N         140.5330  144.1499  160.2239 N.ar    1  UNL1       -0.2425
@<TRIPOS>BOND
     1     7     8    1
     2     8     9   ar
     3     9    10   ar
     4    10    14    1
     5    14    15    3
     6    10    11   ar
     7    11    12   ar
     8    12    13   ar
     9    13     1    1
    10     1     2   ar
    11     2     3   ar
    12     3     4   ar
    13     4     5   ar
    14     5    16    1
    15    16    18    1
    16    18    19    1
    17    19    20    2
    18    20    21    1
    19    21    22    2
    20    22    25    1
    21    25    26   ar
    22    26    27   ar
    23    27    28   ar
    24    28    29   ar
    25    29    30   ar
    26    22    23    1
    27    23    24    1
    28     5     6   ar
    29    13     8   ar
    30     6     1   ar
    31    23    19    1
    32    30    25   ar
    33    16    17    1
@<TRIPOS>MOLECULE
*****
 30 33 0 0 0
SMALL
GASTEIGER

@<TRIPOS>ATOM
      1 C         143.5697  142.0346  165.4372 C.ar    1  UNL1        0.0040
      2 C         144.3078  143.1711  164.7941 C.ar    1  UNL1        0.0208
      3 C         145.1912  142.9166  163.6089 C.ar    1  UNL1        0.1003
      4 N         145.3366  141.5256  163.0666 N.ar    1  UNL1       -0.2294
      5 C         144.5985  140.3891  163.7097 C.ar    1  UNL1        0.1288
      6 C         143.7150  140.6436  164.8950 C.ar    1  UNL1        0.0341
      7 C         140.6647  142.6663  165.0348 C.3     1  UNL1        0.0310
      8 C         141.2339  142.6050  166.4212 C.ar    1  UNL1       -0.0212
      9 C         140.3505  142.8595  167.6065 C.ar    1  UNL1        0.0060
     10 C         140.9196  142.7981  168.9930 C.ar    1  UNL1        0.0681
     11 C         142.3721  142.4823  169.1942 C.ar    1  UNL1        0.0103
     12 C         143.2554  142.2278  168.0089 C.ar    1  UNL1        0.0004
     13 C         142.6863  142.2891  166.6225 C.ar    1  UNL1       -0.0038
     14 C         140.0362  143.0527  170.1783 C.1     1  UNL1        0.1004
     15 N         139.1528  143.3071  171.3635 N.1     1  UNL1       -0.1908
     16 N         144.7438  138.9981  163.1676 N.pl3   1  UNL1       -0.3134
     17 H         145.5458  138.4681  163.3802 H       1  UNL1        0.1485
     18 C         143.6671  138.4145  162.3015 C.3     1  UNL1        0.1338
     19 C         143.2703  139.1051  161.0303 C.2     1  UNL1        0.0986
     20 N         143.8659  138.8666  159.6744 N.2     1  UNL1       -0.1536
     21 N         143.1720  139.7695  158.6980 N.2     1  UNL1       -0.1498
     22 C         142.1477  140.5661  159.4506 C.2     1  UNL1        0.1183
     23 C         142.2085  140.1555  160.8920 C.3     1  UNL1        0.1620
     24 CL        141.3569  140.6997  162.0004 Cl      1  UNL1       -0.1021
     25 C         141.2246  141.5931  158.8646 C.ar    1  UNL1        0.0981
     26 C         139.7433  141.3571  158.8645 C.ar    1  UNL1        0.0205
     27 C         138.8203  142.3840  158.2785 C.ar    1  UNL1        0.0032
     28 C         139.3786  143.6468  157.6925 C.ar    1  UNL1        0.0207
     29 C         140.8600  143.8829  157.6926 C.ar    1  UNL1        0.0989
     30 N         141.7829  142.8559  158.2786 N.ar    1  UNL1       -0.2425
@<TRIPOS>BOND
     1     7     8    1
     2     8     9   ar
     3     9    10   ar
     4    10    14    1
     5    14    15    3
     6    10    11   ar
     7    11    12   ar
     8    12    13   ar
     9    13     1    1
    10     1     2   ar
    11     2     3   ar
    12     3     4   ar
    13     4     5   ar
    14     5    16    1
    15    16    18    1
    16    18    19    1
    17    19    20    2
    18    20    21    1
    19    21    22    2
    20    22    25    1
    21    25    26   ar
    22    26    27   ar
    23    27    28   ar
    24    28    29   ar
    25    29    30   ar
    26    22    23    1
    27    23    24    1
    28     5     6   ar
    29    13     8   ar
    30     6     1   ar
    31    23    19    1
    32    30    25   ar
    33    16    17    1
