@<TRIPOS>MOLECULE
*****
 31 34 0 0 0
SMALL
GASTEIGER

@<TRIPOS>ATOM
      1 C         139.6658  144.3812  161.7341 C.ar    1  UNL1        0.1412
      2 C         138.5422  144.4630  162.7245 C.ar    1  UNL1        0.0710
      3 S         139.0418  143.9357  164.0370 S.2     1  UNL1       -0.0670
      4 C         140.4742  143.5280  163.8576 C.ar    1  UNL1        0.1122
      5 N         140.8598  143.8033  162.4345 N.ar    1  UNL1       -0.2259
      6 C         141.3646  142.9469  164.9158 C.3     1  UNL1        0.1549
      7 C         139.9030  142.6101  164.8974 C.3     1  UNL1        0.1705
      8 O         139.3319  141.6922  165.9372 O.3     1  UNL1       -0.3538
      9 C         140.2223  141.1112  166.9954 C.3     1  UNL1        0.1155
     10 C         139.6510  140.1932  168.0352 C.3     1  UNL1        0.0320
     11 C         141.6838  141.4480  167.0137 C.3     1  UNL1        0.0328
     12 C         142.2549  142.3659  165.9739 C.3     1  UNL1        0.0426
     13 C         143.7166  142.7029  165.9922 C.3     1  UNL1        0.0673
     14 S         144.2877  143.6207  164.9524 S.3     1  UNL1       -0.0807
     15 C         143.3973  144.2018  163.8943 C.2     1  UNL1        0.1483
     16 N         143.9686  145.1197  162.8545 N.pl3   1  UNL1       -0.3380
     17 N         141.9358  143.8649  163.8759 N.2     1  UNL1       -0.2464
     18 H         144.9278  145.3408  162.8665 H       1  UNL1        0.1442
     19 H         143.3842  145.5011  162.1600 H       1  UNL1        0.1442
     20 C         140.8706  145.1157  159.5527 C.2     1  UNL1        0.2699
     21 O         142.1954  145.0063  160.2475 O.2     1  UNL1       -0.2681
     22 N         139.6058  144.8031  160.2960 N.am    1  UNL1       -0.2641
     23 H         138.7363  144.8749  159.8399 H       1  UNL1        0.1566
     24 C         140.6905  146.3816  155.2382 C.ar    1  UNL1        0.2449
     25 C         139.6474  146.8598  156.2043 C.ar    1  UNL1        0.1565
     26 N         139.7074  146.4378  157.6424 N.ar    1  UNL1       -0.2328
     27 C         140.8106  145.5376  158.1146 C.ar    1  UNL1        0.1541
     28 C         141.8537  145.0595  157.1484 C.ar    1  UNL1        0.1258
     29 N         141.7936  145.4815  155.7102 N.ar    1  UNL1       -0.2071
     30 C         140.4249  148.2477  153.4501 C.3     1  UNL1        0.2543
     31 O         140.6304  146.8036  153.8001 O.3     1  UNL1       -0.4551
@<TRIPOS>BOND
     1    30    31    1
     2    31    24    1
     3    24    25   ar
     4    25    26   ar
     5    26    27   ar
     6    27    20    1
     7    20    21    2
     8    20    22   am
     9    22     1    1
    10     1     2   ar
    11     2     3   ar
    12     3     4   ar
    13     6     4    1
    14     6     7    1
    15     7     8    1
    16     8     9    1
    17     9    10    1
    18     9    11    1
    19    12    11    1
    20    12    13    1
    21    13    14    1
    22    14    15    1
    23    15    16    1
    24    15    17    2
    25     4     5   ar
    26    27    28   ar
    27    28    29   ar
    28    29    24   ar
    29     5     1   ar
    30    12     6    1
    31    17     6    1
    32    22    23    1
    33    16    18    1
    34    16    19    1
@<TRIPOS>MOLECULE
*****
 31 34 0 0 0
SMALL
GASTEIGER

@<TRIPOS>ATOM
      1 C         141.4957  145.0143  161.3814 C.ar    1  UNL1        0.1412
      2 C         140.6585  145.4951  162.5293 C.ar    1  UNL1        0.0710
      3 S         140.9750  144.6433  163.7228 S.2     1  UNL1       -0.0670
      4 C         142.0079  143.6359  163.3123 C.ar    1  UNL1        0.1122
      5 N         142.3297  143.8652  161.8653 N.ar    1  UNL1       -0.2259
      6 C         142.6127  142.5839  164.1941 C.3     1  UNL1        0.1549
      7 C         141.3251  143.2442  164.5892 C.3     1  UNL1        0.1705
      8 O         140.6423  142.8525  165.8660 O.3     1  UNL1       -0.3538
      9 C         141.2472  141.8005  166.7478 C.3     1  UNL1        0.1155
     10 C         140.5644  141.4088  168.0247 C.3     1  UNL1        0.0320
     11 C         142.5348  141.1403  166.3528 C.3     1  UNL1        0.0328
     12 C         143.2176  141.5320  165.0759 C.3     1  UNL1        0.0426
     13 C         144.5053  140.8717  164.6808 C.3     1  UNL1        0.0673
     14 S         145.1880  141.2635  163.4040 S.3     1  UNL1       -0.0807
     15 C         144.5832  142.3154  162.5222 C.2     1  UNL1        0.1483
     16 N         145.2660  142.7071  161.2453 N.pl3   1  UNL1       -0.3380
     17 N         143.2956  142.9756  162.9172 N.2     1  UNL1       -0.2464
     18 H         146.1111  142.2738  160.9861 H       1  UNL1        0.1442
     19 H         144.8691  143.3975  160.6666 H       1  UNL1        0.1442
     20 C         140.4784  145.1250  158.9934 C.2     1  UNL1        0.2699
     21 O         139.4555  144.0990  159.3816 O.2     1  UNL1       -0.2681
     22 N         141.4985  145.5827  159.9933 N.am    1  UNL1       -0.2641
     23 H         142.1699  146.2562  159.7386 H       1  UNL1        0.1566
     24 C         140.4868  146.8305  154.8291 C.ar    1  UNL1        0.2449
     25 C         139.4995  147.3298  155.8420 C.ar    1  UNL1        0.1565
     26 N         139.4967  146.7613  157.2301 N.ar    1  UNL1       -0.2328
     27 C         140.4812  145.6935  157.6053 C.ar    1  UNL1        0.1541
     28 C         141.4685  145.1942  156.5924 C.ar    1  UNL1        0.1258
     29 N         141.4713  145.7628  155.2042 N.ar    1  UNL1       -0.2071
     30 C         140.0887  148.8266  153.2144 C.3     1  UNL1        0.2543
     31 O         140.4896  147.3990  153.4411 O.3     1  UNL1       -0.4551
@<TRIPOS>BOND
     1    30    31    1
     2    31    24    1
     3    24    25   ar
     4    25    26   ar
     5    26    27   ar
     6    27    20    1
     7    20    21    2
     8    20    22   am
     9    22     1    1
    10     1     2   ar
    11     2     3   ar
    12     3     4   ar
    13     6     4    1
    14     6     7    1
    15     7     8    1
    16     8     9    1
    17     9    10    1
    18     9    11    1
    19    12    11    1
    20    12    13    1
    21    13    14    1
    22    14    15    1
    23    15    16    1
    24    15    17    2
    25     4     5   ar
    26    27    28   ar
    27    28    29   ar
    28    29    24   ar
    29     5     1   ar
    30    12     6    1
    31    17     6    1
    32    22    23    1
    33    16    18    1
    34    16    19    1
@<TRIPOS>MOLECULE
*****
 31 34 0 0 0
SMALL
GASTEIGER

@<TRIPOS>ATOM
      1 C         138.9815  143.3776  161.9079 C.ar    1  UNL1        0.1412
      2 C         138.9704  144.7477  162.5183 C.ar    1  UNL1        0.0710
      3 S         139.8648  144.7261  163.7223 S.2     1  UNL1       -0.0670
      4 C         140.4288  143.3426  163.8559 C.ar    1  UNL1        0.1122
      5 N         139.8829  142.5092  162.7345 N.ar    1  UNL1       -0.2259
      6 C         141.3730  142.8746  164.9234 C.3     1  UNL1        0.1549
      7 C         139.9365  142.4437  164.9511 C.3     1  UNL1        0.1705
      8 O         139.4442  141.5448  166.0463 O.3     1  UNL1       -0.3538
      9 C         140.3883  141.0768  167.1139 C.3     1  UNL1        0.1155
     10 C         139.8959  140.1779  168.2091 C.3     1  UNL1        0.0320
     11 C         141.8247  141.5077  167.0862 C.3     1  UNL1        0.0328
     12 C         142.3171  142.4066  165.9910 C.3     1  UNL1        0.0426
     13 C         143.7536  142.8376  165.9632 C.3     1  UNL1        0.0673
     14 S         144.2460  143.7365  164.8680 S.3     1  UNL1       -0.0807
     15 C         143.3018  144.2045  163.8005 C.2     1  UNL1        0.1483
     16 N         143.7943  145.1034  162.7052 N.pl3   1  UNL1       -0.3380
     17 N         141.8654  143.7735  163.8282 N.2     1  UNL1       -0.2464
     18 H         144.7371  145.3862  162.6871 H       1  UNL1        0.1442
     19 H         143.1746  145.4106  162.0046 H       1  UNL1        0.1442
     20 C         138.9595  142.6643  159.4098 C.2     1  UNL1        0.2699
     21 O         140.4519  142.8043  159.3566 O.2     1  UNL1       -0.2681
     22 N         138.2243  142.9510  160.6854 N.am    1  UNL1       -0.2641
     23 H         137.2447  142.8591  160.7203 H       1  UNL1        0.1566
     24 C         136.6875  141.3843  155.7424 C.ar    1  UNL1        0.2449
     25 C         137.1988  142.7899  155.8552 C.ar    1  UNL1        0.1565
     26 N         137.9562  143.2166  157.0777 N.ar    1  UNL1       -0.2328
     27 C         138.2022  142.2376  158.1873 C.ar    1  UNL1        0.1541
     28 C         137.6908  140.8320  158.0744 C.ar    1  UNL1        0.1258
     29 N         136.9334  140.4053  156.8519 N.ar    1  UNL1       -0.2071
     30 C         134.4609  140.6697  154.6104 C.3     1  UNL1        0.2543
     31 O         135.9302  140.9577  154.5199 O.3     1  UNL1       -0.4551
@<TRIPOS>BOND
     1    30    31    1
     2    31    24    1
     3    24    25   ar
     4    25    26   ar
     5    26    27   ar
     6    27    20    1
     7    20    21    2
     8    20    22   am
     9    22     1    1
    10     1     2   ar
    11     2     3   ar
    12     3     4   ar
    13     6     4    1
    14     6     7    1
    15     7     8    1
    16     8     9    1
    17     9    10    1
    18     9    11    1
    19    12    11    1
    20    12    13    1
    21    13    14    1
    22    14    15    1
    23    15    16    1
    24    15    17    2
    25     4     5   ar
    26    27    28   ar
    27    28    29   ar
    28    29    24   ar
    29     5     1   ar
    30    12     6    1
    31    17     6    1
    32    22    23    1
    33    16    18    1
    34    16    19    1
@<TRIPOS>MOLECULE
*****
 31 34 0 0 0
SMALL
GASTEIGER

@<TRIPOS>ATOM
      1 C         142.7976  144.1532  162.6539 C.ar    1  UNL1        0.1412
      2 C         144.1347  143.9675  163.3079 C.ar    1  UNL1        0.0710
      3 S         143.9214  143.2348  164.5993 S.2     1  UNL1       -0.0670
      4 C         142.4524  142.9676  164.7434 C.ar    1  UNL1        0.1122
      5 N         141.7579  143.5352  163.5411 N.ar    1  UNL1       -0.2259
      6 C         141.7936  142.2575  165.8887 C.3     1  UNL1        0.1549
      7 C         143.1170  142.9350  166.0877 C.3     1  UNL1        0.1705
      8 O         143.7816  142.9024  167.4320 O.3     1  UNL1       -0.3538
      9 C         143.1228  142.1923  168.5773 C.3     1  UNL1        0.1155
     10 C         143.7875  142.1597  169.9217 C.3     1  UNL1        0.0320
     11 C         141.7994  141.5148  168.3783 C.3     1  UNL1        0.0328
     12 C         141.1348  141.5474  167.0340 C.3     1  UNL1        0.0426
     13 C         139.8114  140.8699  166.8350 C.3     1  UNL1        0.0673
     14 S         139.1468  140.9025  165.4907 S.3     1  UNL1       -0.0807
     15 C         139.8056  141.6126  164.3454 C.2     1  UNL1        0.1483
     16 N         139.1409  141.6452  163.0010 N.pl3   1  UNL1       -0.3380
     17 N         141.1289  142.2901  164.5443 N.2     1  UNL1       -0.2464
     18 H         138.2723  141.2005  162.8704 H       1  UNL1        0.1442
     19 H         139.5732  142.1112  162.2493 H       1  UNL1        0.1442
     20 C         141.7002  144.1681  160.2990 C.2     1  UNL1        0.2699
     21 O         141.1087  142.8159  160.5661 O.2     1  UNL1       -0.2681
     22 N         142.5446  144.8368  161.3429 N.am    1  UNL1       -0.2641
     23 H         142.9329  145.7243  161.1677 H       1  UNL1        0.1566
     24 C         140.9416  146.2191  156.3661 C.ar    1  UNL1        0.2449
     25 C         142.2395  145.5048  156.6014 C.ar    1  UNL1        0.1565
     26 N         142.4923  144.8212  157.9123 N.ar    1  UNL1       -0.2328
     27 C         141.4473  144.8518  158.9881 C.ar    1  UNL1        0.1541
     28 C         140.1494  145.5660  158.7528 C.ar    1  UNL1        0.1258
     29 N         139.8966  146.2497  157.4417 N.ar    1  UNL1       -0.2071
     30 C         139.5879  147.9146  154.9369 C.3     1  UNL1        0.2543
     31 O         140.6888  146.9027  155.0551 O.3     1  UNL1       -0.4551
@<TRIPOS>BOND
     1    30    31    1
     2    31    24    1
     3    24    25   ar
     4    25    26   ar
     5    26    27   ar
     6    27    20    1
     7    20    21    2
     8    20    22   am
     9    22     1    1
    10     1     2   ar
    11     2     3   ar
    12     3     4   ar
    13     6     4    1
    14     6     7    1
    15     7     8    1
    16     8     9    1
    17     9    10    1
    18     9    11    1
    19    12    11    1
    20    12    13    1
    21    13    14    1
    22    14    15    1
    23    15    16    1
    24    15    17    2
    25     4     5   ar
    26    27    28   ar
    27    28    29   ar
    28    29    24   ar
    29     5     1   ar
    30    12     6    1
    31    17     6    1
    32    22    23    1
    33    16    18    1
    34    16    19    1
@<TRIPOS>MOLECULE
*****
 31 34 0 0 0
SMALL
GASTEIGER

@<TRIPOS>ATOM
      1 C         138.9354  143.3852  162.0111 C.ar    1  UNL1        0.1412
      2 C         137.9996  144.1365  162.9111 C.ar    1  UNL1        0.0710
      3 S         138.0196  143.4747  164.2571 S.2     1  UNL1       -0.0670
      4 C         138.9679  142.3143  164.1890 C.ar    1  UNL1        0.1122
      5 N         139.5338  142.2591  162.8009 N.ar    1  UNL1       -0.2259
      6 C         139.2931  141.3744  165.3118 C.3     1  UNL1        0.1549
      7 C         139.4919  142.8506  165.4881 C.3     1  UNL1        0.1705
      8 O         140.0160  143.3868  166.7872 O.3     1  UNL1       -0.3538
      9 C         140.3412  142.4469  167.9100 C.3     1  UNL1        0.1155
     10 C         140.8652  142.9832  169.2092 C.3     1  UNL1        0.0320
     11 C         140.1423  140.9706  167.7337 C.3     1  UNL1        0.0328
     12 C         139.6182  140.4344  166.4346 C.3     1  UNL1        0.0426
     13 C         139.4193  138.9581  166.2582 C.3     1  UNL1        0.0673
     14 S         138.8953  138.4218  164.9591 S.3     1  UNL1       -0.0807
     15 C         138.5701  139.3618  163.8363 C.2     1  UNL1        0.1483
     16 N         138.0460  138.8255  162.5371 N.pl3   1  UNL1       -0.3380
     17 N         138.7690  140.8380  164.0126 N.2     1  UNL1       -0.2464
     18 H         137.9155  137.8565  162.4214 H       1  UNL1        0.1442
     19 H         137.8326  139.4424  161.8002 H       1  UNL1        0.1442
     20 C         140.4194  144.5332  160.2141 C.2     1  UNL1        0.2699
     21 O         141.3296  145.0434  161.2916 O.2     1  UNL1       -0.2681
     22 N         139.2223  143.7041  160.5738 N.am    1  UNL1       -0.2641
     23 H         138.6249  143.3693  159.8666 H       1  UNL1        0.1566
     24 C         141.2801  145.4899  155.9019 C.ar    1  UNL1        0.2449
     25 C         142.1844  146.0090  156.9803 C.ar    1  UNL1        0.1565
     26 N         141.8975  145.6901  158.4176 N.ar    1  UNL1       -0.2328
     27 C         140.7063  144.8521  158.7767 C.ar    1  UNL1        0.1541
     28 C         139.8020  144.3329  157.6983 C.ar    1  UNL1        0.1258
     29 N         140.0890  144.6518  156.2609 N.ar    1  UNL1       -0.2071
     30 C         140.6968  146.7803  153.7238 C.3     1  UNL1        0.2543
     31 O         141.5670  145.8088  154.4646 O.3     1  UNL1       -0.4551
@<TRIPOS>BOND
     1    30    31    1
     2    31    24    1
     3    24    25   ar
     4    25    26   ar
     5    26    27   ar
     6    27    20    1
     7    20    21    2
     8    20    22   am
     9    22     1    1
    10     1     2   ar
    11     2     3   ar
    12     3     4   ar
    13     6     4    1
    14     6     7    1
    15     7     8    1
    16     8     9    1
    17     9    10    1
    18     9    11    1
    19    12    11    1
    20    12    13    1
    21    13    14    1
    22    14    15    1
    23    15    16    1
    24    15    17    2
    25     4     5   ar
    26    27    28   ar
    27    28    29   ar
    28    29    24   ar
    29     5     1   ar
    30    12     6    1
    31    17     6    1
    32    22    23    1
    33    16    18    1
    34    16    19    1
@<TRIPOS>MOLECULE
*****
 31 34 0 0 0
SMALL
GASTEIGER

@<TRIPOS>ATOM
      1 C         143.3653  142.0705  161.5705 C.ar    1  UNL1        0.1412
      2 C         143.8010  142.8079  162.8019 C.ar    1  UNL1        0.0710
      3 S         142.6412  142.8488  163.7524 S.2     1  UNL1       -0.0670
      4 C         141.4888  142.1366  163.1083 C.ar    1  UNL1        0.1122
      5 N         141.9363  141.6556  161.7598 N.ar    1  UNL1       -0.2259
      6 C         140.1278  141.9400  163.7075 C.3     1  UNL1        0.1549
      7 C         141.0675  140.7776  163.5831 C.3     1  UNL1        0.1705
      8 O         140.6463  139.4185  164.0580 O.3     1  UNL1       -0.3538
      9 C         139.2853  139.2219  164.6572 C.3     1  UNL1        0.1155
     10 C         138.8641  137.8628  165.1320 C.3     1  UNL1        0.0320
     11 C         138.3455  140.3844  164.7815 C.3     1  UNL1        0.0328
     12 C         138.7668  141.7434  164.3067 C.3     1  UNL1        0.0426
     13 C         137.8270  142.9060  164.4311 C.3     1  UNL1        0.0673
     14 S         138.2482  144.2650  163.9563 S.3     1  UNL1       -0.0807
     15 C         139.6092  144.4616  163.3570 C.2     1  UNL1        0.1483
     16 N         140.0304  145.8208  162.8822 N.pl3   1  UNL1       -0.3380
     17 N         140.5490  143.2992  163.2327 N.2     1  UNL1       -0.2464
     18 H         139.4136  146.5837  162.9638 H       1  UNL1        0.1442
     19 H         140.9237  145.9498  162.4889 H       1  UNL1        0.1442
     20 C         144.0719  142.6542  159.1395 C.2     1  UNL1        0.2699
     21 O         143.0885  143.7867  159.1255 O.2     1  UNL1       -0.2681
     22 N         144.2103  141.7961  160.3620 N.am    1  UNL1       -0.2641
     23 H         144.8558  141.0528  160.3711 H       1  UNL1        0.1566
     24 C         146.6072  141.8310  155.5139 C.ar    1  UNL1        0.2449
     25 C         147.1981  142.5380  156.6975 C.ar    1  UNL1        0.1565
     26 N         146.3531  142.8125  157.9060 N.ar    1  UNL1       -0.2328
     27 C         144.9170  142.3798  157.9310 C.ar    1  UNL1        0.1541
     28 C         144.3260  141.6727  156.7474 C.ar    1  UNL1        0.1258
     29 N         145.1712  141.3983  155.5388 N.ar    1  UNL1       -0.2071
     30 C         148.8628  142.0634  154.2458 C.3     1  UNL1        0.2543
     31 O         147.4523  141.5566  154.3054 O.3     1  UNL1       -0.4551
@<TRIPOS>BOND
     1    30    31    1
     2    31    24    1
     3    24    25   ar
     4    25    26   ar
     5    26    27   ar
     6    27    20    1
     7    20    21    2
     8    20    22   am
     9    22     1    1
    10     1     2   ar
    11     2     3   ar
    12     3     4   ar
    13     6     4    1
    14     6     7    1
    15     7     8    1
    16     8     9    1
    17     9    10    1
    18     9    11    1
    19    12    11    1
    20    12    13    1
    21    13    14    1
    22    14    15    1
    23    15    16    1
    24    15    17    2
    25     4     5   ar
    26    27    28   ar
    27    28    29   ar
    28    29    24   ar
    29     5     1   ar
    30    12     6    1
    31    17     6    1
    32    22    23    1
    33    16    18    1
    34    16    19    1
@<TRIPOS>MOLECULE
*****
 31 34 0 0 0
SMALL
GASTEIGER

@<TRIPOS>ATOM
      1 C         140.5598  143.2742  162.9759 C.ar    1  UNL1        0.1412
      2 C         140.1873  144.0675  164.1934 C.ar    1  UNL1        0.0710
      3 S         140.5993  143.2814  165.4027 S.2     1  UNL1       -0.0670
      4 C         141.2263  142.0023  164.9326 C.ar    1  UNL1        0.1122
      5 N         141.2019  141.9980  163.4329 N.ar    1  UNL1       -0.2259
      6 C         141.7805  140.9181  165.8086 C.3     1  UNL1        0.1549
      7 C         140.6554  141.7790  166.3016 C.3     1  UNL1        0.1705
      8 O         140.0845  141.5556  167.6706 O.3     1  UNL1       -0.3538
      9 C         140.6387  140.4714  168.5466 C.3     1  UNL1        0.1155
     10 C         140.0678  140.2480  169.9156 C.3     1  UNL1        0.0320
     11 C         141.7638  139.6105  168.0536 C.3     1  UNL1        0.0328
     12 C         142.3347  139.8339  166.6846 C.3     1  UNL1        0.0426
     13 C         143.4598  138.9730  166.1915 C.3     1  UNL1        0.0673
     14 S         144.0307  139.1963  164.8225 S.3     1  UNL1       -0.0807
     15 C         143.4765  140.2806  163.9466 C.2     1  UNL1        0.1483
     16 N         144.0475  140.5039  162.5775 N.pl3   1  UNL1       -0.3380
     17 N         142.3514  141.1415  164.4396 N.2     1  UNL1       -0.2464
     18 H         144.7859  139.9389  162.2539 H       1  UNL1        0.1442
     19 H         143.6838  141.2155  162.0026 H       1  UNL1        0.1442
     20 C         141.4510  144.2827  160.7537 C.2     1  UNL1        0.2699
     21 O         142.8012  144.4692  161.3798 O.2     1  UNL1       -0.2681
     22 N         140.3303  143.6852  161.5518 N.am    1  UNL1       -0.2641
     23 H         139.4441  143.5628  161.1408 H       1  UNL1        0.1566
     24 C         140.7625  145.5155  156.4809 C.ar    1  UNL1        0.2449
     25 C         141.9895  145.9810  157.2074 C.ar    1  UNL1        0.1565
     26 N         142.2190  145.5701  158.6317 N.ar    1  UNL1       -0.2328
     27 C         141.2215  144.6936  159.3295 C.ar    1  UNL1        0.1541
     28 C         139.9945  144.2281  158.6029 C.ar    1  UNL1        0.1258
     29 N         139.7650  144.6391  157.1786 N.ar    1  UNL1       -0.2071
     30 C         140.1962  147.3517  154.7324 C.3     1  UNL1        0.2543
     31 O         140.5331  145.9265  155.0568 O.3     1  UNL1       -0.4551
@<TRIPOS>BOND
     1    30    31    1
     2    31    24    1
     3    24    25   ar
     4    25    26   ar
     5    26    27   ar
     6    27    20    1
     7    20    21    2
     8    20    22   am
     9    22     1    1
    10     1     2   ar
    11     2     3   ar
    12     3     4   ar
    13     6     4    1
    14     6     7    1
    15     7     8    1
    16     8     9    1
    17     9    10    1
    18     9    11    1
    19    12    11    1
    20    12    13    1
    21    13    14    1
    22    14    15    1
    23    15    16    1
    24    15    17    2
    25     4     5   ar
    26    27    28   ar
    27    28    29   ar
    28    29    24   ar
    29     5     1   ar
    30    12     6    1
    31    17     6    1
    32    22    23    1
    33    16    18    1
    34    16    19    1
@<TRIPOS>MOLECULE
*****
 31 34 0 0 0
SMALL
GASTEIGER

@<TRIPOS>ATOM
      1 C         141.4711  139.5819  160.8332 C.ar    1  UNL1        0.1412
      2 C         141.6838  139.0176  162.2066 C.ar    1  UNL1        0.0710
      3 S         141.7180  140.1608  163.1773 S.2     1  UNL1       -0.0670
      4 C         141.5263  141.4316  162.4036 C.ar    1  UNL1        0.1122
      5 N         141.3737  141.0737  160.9549 N.ar    1  UNL1       -0.2259
      6 C         141.4931  142.8169  162.9779 C.3     1  UNL1        0.1549
      7 C         140.2681  141.9529  163.0322 C.3     1  UNL1        0.1705
      8 O         139.0100  142.4743  163.6608 O.3     1  UNL1       -0.3538
      9 C         138.9768  143.8596  164.2350 C.3     1  UNL1        0.1155
     10 C         137.7185  144.3809  164.8637 C.3     1  UNL1        0.0320
     11 C         140.2017  144.7236  164.1807 C.3     1  UNL1        0.0328
     12 C         141.4599  144.2022  163.5521 C.3     1  UNL1        0.0426
     13 C         142.6849  145.0662  163.4978 C.3     1  UNL1        0.0673
     14 S         143.9431  144.5449  162.8692 S.3     1  UNL1       -0.0807
     15 C         143.9763  143.1595  162.2949 C.2     1  UNL1        0.1483
     16 N         145.2346  142.6382  161.6663 N.pl3   1  UNL1       -0.3380
     17 N         142.7514  142.2956  162.3492 N.2     1  UNL1       -0.2464
     18 H         146.0385  143.2053  161.6306 H       1  UNL1        0.1442
     19 H         145.2564  141.7290  161.2894 H       1  UNL1        0.1442
     20 C         142.5954  138.5686  158.7216 C.2     1  UNL1        0.2699
     21 O         143.9160  139.1335  159.1535 O.2     1  UNL1       -0.2681
     22 N         141.3729  138.7928  159.5614 N.am    1  UNL1       -0.2641
     23 H         140.5061  138.4219  159.2778 H       1  UNL1        0.1566
     24 C         142.3007  136.2011  154.9060 C.ar    1  UNL1        0.2449
     25 C         143.6280  136.7351  155.3567 C.ar    1  UNL1        0.1565
     26 N         143.7262  137.5242  156.6285 N.ar    1  UNL1       -0.2328
     27 C         142.4971  137.7794  157.4497 C.ar    1  UNL1        0.1541
     28 C         141.1698  137.2454  156.9990 C.ar    1  UNL1        0.1258
     29 N         141.0716  136.4562  155.7271 N.ar    1  UNL1       -0.2071
     30 C         140.8598  135.1316  153.0272 C.3     1  UNL1        0.2543
     31 O         142.2025  135.4120  153.6342 O.3     1  UNL1       -0.4551
@<TRIPOS>BOND
     1    30    31    1
     2    31    24    1
     3    24    25   ar
     4    25    26   ar
     5    26    27   ar
     6    27    20    1
     7    20    21    2
     8    20    22   am
     9    22     1    1
    10     1     2   ar
    11     2     3   ar
    12     3     4   ar
    13     6     4    1
    14     6     7    1
    15     7     8    1
    16     8     9    1
    17     9    10    1
    18     9    11    1
    19    12    11    1
    20    12    13    1
    21    13    14    1
    22    14    15    1
    23    15    16    1
    24    15    17    2
    25     4     5   ar
    26    27    28   ar
    27    28    29   ar
    28    29    24   ar
    29     5     1   ar
    30    12     6    1
    31    17     6    1
    32    22    23    1
    33    16    18    1
    34    16    19    1
@<TRIPOS>MOLECULE
*****
 31 34 0 0 0
SMALL
GASTEIGER

@<TRIPOS>ATOM
      1 C         139.8322  139.0390  161.6885 C.ar    1  UNL1        0.1412
      2 C         138.6335  138.5506  162.4465 C.ar    1  UNL1        0.0710
      3 S         138.4448  139.4408  163.6390 S.2     1  UNL1       -0.0670
      4 C         139.5270  140.4793  163.6180 C.ar    1  UNL1        0.1122
      5 N         140.3844  140.2310  162.4125 N.ar    1  UNL1       -0.2259
      6 C         139.7182  141.5740  164.6255 C.3     1  UNL1        0.1549
      7 C         140.2611  140.2022  164.8963 C.3     1  UNL1        0.1705
      8 O         140.9953  139.9251  166.1747 O.3     1  UNL1       -0.3538
      9 C         141.1865  141.0198  167.1822 C.3     1  UNL1        0.1155
     10 C         141.9206  140.7426  168.4606 C.3     1  UNL1        0.0320
     11 C         140.6435  142.3916  166.9114 C.3     1  UNL1        0.0328
     12 C         139.9093  142.6687  165.6331 C.3     1  UNL1        0.0426
     13 C         139.3663  144.0405  165.3622 C.3     1  UNL1        0.0673
     14 S         138.6322  144.3176  164.0839 S.3     1  UNL1       -0.0807
     15 C         138.4410  143.2229  163.0763 C.2     1  UNL1        0.1483
     16 N         137.7068  143.5001  161.7979 N.pl3   1  UNL1       -0.3380
     17 N         138.9840  141.8512  163.3471 N.2     1  UNL1       -0.2464
     18 H         137.3505  144.4005  161.6202 H       1  UNL1        0.1442
     19 H         137.5813  142.7816  161.1366 H       1  UNL1        0.1442
     20 C         139.6867  138.6766  159.1200 C.2     1  UNL1        0.2699
     21 O         138.4414  139.5114  159.0727 O.2     1  UNL1       -0.2681
     22 N         140.3821  138.4404  160.4279 N.am    1  UNL1       -0.2641
     23 H         141.1994  137.8925  160.4589 H       1  UNL1        0.1566
     24 C         141.3365  136.8807  155.3380 C.ar    1  UNL1        0.2449
     25 C         139.8537  137.0175  155.5186 C.ar    1  UNL1        0.1565
     26 N         139.3038  137.6161  156.7792 N.ar    1  UNL1       -0.2328
     27 C         140.2366  138.0780  157.8593 C.ar    1  UNL1        0.1541
     28 C         141.7194  137.9412  157.6787 C.ar    1  UNL1        0.1258
     29 N         142.2694  137.3425  156.4180 N.ar    1  UNL1       -0.2071
     30 C         142.0786  134.7981  153.9735 C.3     1  UNL1        0.2543
     31 O         141.8864  136.2821  154.0774 O.3     1  UNL1       -0.4551
@<TRIPOS>BOND
     1    30    31    1
     2    31    24    1
     3    24    25   ar
     4    25    26   ar
     5    26    27   ar
     6    27    20    1
     7    20    21    2
     8    20    22   am
     9    22     1    1
    10     1     2   ar
    11     2     3   ar
    12     3     4   ar
    13     6     4    1
    14     6     7    1
    15     7     8    1
    16     8     9    1
    17     9    10    1
    18     9    11    1
    19    12    11    1
    20    12    13    1
    21    13    14    1
    22    14    15    1
    23    15    16    1
    24    15    17    2
    25     4     5   ar
    26    27    28   ar
    27    28    29   ar
    28    29    24   ar
    29     5     1   ar
    30    12     6    1
    31    17     6    1
    32    22    23    1
    33    16    18    1
    34    16    19    1
