@<TRIPOS>MOLECULE
*****
 34 37 0 0 0
SMALL
GASTEIGER

@<TRIPOS>ATOM
      1 C         140.2870  142.3883  162.2196 C.ar    1  UNL1        0.0784
      2 C         140.4353  140.9048  162.3843 C.ar    1  UNL1        0.0171
      3 C         140.0828  140.2563  163.6901 C.ar    1  UNL1        0.0061
      4 C         139.5820  141.0912  164.8311 C.ar    1  UNL1        0.0575
      5 C         139.4337  142.5747  164.6664 C.ar    1  UNL1        0.0356
      6 C         139.7861  143.2233  163.3607 C.ar    1  UNL1        0.1536
      7 F         139.6378  144.7068  163.1959 F       1  UNL1       -0.2029
      8 C         139.2296  140.4426  166.1370 C.ar    1  UNL1        0.2513
      9 N         138.2942  139.2846  166.3221 N.ar    1  UNL1       -0.1058
     10 N         138.2371  138.9644  167.7864 N.ar    1  UNL1       -0.0923
     11 C         139.1372  139.9245  168.5063 C.ar    1  UNL1        0.3086
     12 O         139.7505  140.8380  167.4868 O.2     1  UNL1       -0.4048
     13 N         139.3811  139.9640  169.9858 N.pl3   1  UNL1       -0.2871
     14 H         138.9936  139.2705  170.5673 H       1  UNL1        0.1512
     15 C         140.2153  141.0602  170.5794 C.3     1  UNL1        0.0925
     16 C         141.6519  140.8049  170.9273 C.3     1  UNL1        0.0386
     17 C         142.4994  139.9493  170.0331 C.3     1  UNL1        0.0738
     18 N         142.7246  140.3497  168.6053 N.3     1  UNL1       -0.2726
     19 C         142.7801  139.3028  167.5324 C.3     1  UNL1        0.0721
     20 C         143.0053  139.7033  166.1046 C.3     1  UNL1        0.0174
     21 C         143.1750  141.1507  165.7494 C.3     1  UNL1        0.0029
     22 C         143.1196  142.1976  166.8222 C.3     1  UNL1        0.0174
     23 C         142.8944  141.7971  168.2501 C.3     1  UNL1        0.0721
     24 O         138.1253  143.0883  160.2606 O.2     1  UNL1       -0.2697
     25 C         139.5586  143.3869  159.9343 C.2     1  UNL1        0.2517
     26 N         140.6394  143.0370  160.9138 N.am    1  UNL1       -0.2786
     27 H         141.5801  143.2330  160.6996 H       1  UNL1        0.1552
     28 C         139.9111  144.0356  158.6285 C.ar    1  UNL1        0.0811
     29 C         139.3643  143.4838  157.3453 C.ar    1  UNL1        0.0068
     30 C         139.7168  144.1325  156.0396 C.ar    1  UNL1        0.0003
     31 C         140.6161  145.3328  156.0170 C.ar    1  UNL1        0.0023
     32 C         141.1628  145.8845  157.3002 C.ar    1  UNL1        0.0298
     33 C         140.8104  145.2359  158.6059 C.ar    1  UNL1        0.1445
     34 F         141.3572  145.7876  159.8892 F       1  UNL1       -0.2040
@<TRIPOS>BOND
     1    24    25    2
     2    25    26   am
     3    26     1    1
     4     1     2   ar
     5     2     3   ar
     6     3     4   ar
     7     4     8    1
     8     8     9   ar
     9     9    10   ar
    10    10    11   ar
    11    11    13    1
    12    13    15    1
    13    15    16    1
    14    16    17    1
    15    17    18    1
    16    18    19    1
    17    19    20    1
    18    20    21    1
    19    21    22    1
    20    22    23    1
    21    11    12   ar
    22     4     5   ar
    23     5     6   ar
    24     6     7    1
    25    25    28    1
    26    28    29   ar
    27    29    30   ar
    28    30    31   ar
    29    31    32   ar
    30    32    33   ar
    31    33    34    1
    32     6     1   ar
    33    33    28   ar
    34    12     8   ar
    35    23    18    1
    36    26    27    1
    37    13    14    1
@<TRIPOS>MOLECULE
*****
 34 37 0 0 0
SMALL
GASTEIGER

@<TRIPOS>ATOM
      1 C         140.2599  143.2074  164.6195 C.ar    1  UNL1        0.0784
      2 C         141.0347  142.4232  163.6023 C.ar    1  UNL1        0.0171
      3 C         141.2494  142.9838  162.2277 C.ar    1  UNL1        0.0061
      4 C         140.6893  144.3286  161.8703 C.ar    1  UNL1        0.0575
      5 C         139.9146  145.1128  162.8874 C.ar    1  UNL1        0.0356
      6 C         139.6998  144.5522  164.2620 C.ar    1  UNL1        0.1536
      7 F         138.9250  145.3365  165.2793 F       1  UNL1       -0.2029
      8 C         140.9041  144.8892  160.4956 C.ar    1  UNL1        0.2513
      9 N         142.1722  144.8079  159.6984 N.ar    1  UNL1       -0.1058
     10 N         141.9403  145.4979  158.3869 N.ar    1  UNL1       -0.0923
     11 C         140.5289  146.0057  158.3735 C.ar    1  UNL1        0.3086
     12 O         139.8885  145.6295  159.6767 O.2     1  UNL1       -0.4048
     13 N         139.8731  146.7577  157.2535 N.pl3   1  UNL1       -0.2871
     14 H         139.4692  147.6394  157.4227 H       1  UNL1        0.1512
     15 C         139.8326  146.1662  155.8756 C.3     1  UNL1        0.0925
     16 C         139.0169  144.9353  155.6115 C.3     1  UNL1        0.0386
     17 C         139.6576  143.5810  155.6847 C.3     1  UNL1        0.0738
     18 N         139.6973  142.8395  156.9879 N.3     1  UNL1       -0.2726
     19 C         138.4904  142.8230  157.8785 C.3     1  UNL1        0.0721
     20 C         138.5301  142.0815  159.1817 C.3     1  UNL1        0.0174
     21 C         139.7766  141.3564  159.5945 C.3     1  UNL1        0.0029
     22 C         140.9835  141.3729  158.7039 C.3     1  UNL1        0.0174
     23 C         140.9438  142.1145  157.4006 C.3     1  UNL1        0.0721
     24 O         142.6162  142.5382  166.3516 O.2     1  UNL1       -0.2697
     25 C         141.2233  142.3123  166.8602 C.2     1  UNL1        0.2517
     26 N         140.0451  142.6468  165.9942 N.am    1  UNL1       -0.2786
     27 H         139.1309  142.4985  166.3280 H       1  UNL1        0.1552
     28 C         141.0085  141.7517  168.2349 C.ar    1  UNL1        0.0811
     29 C         141.3422  140.3175  168.5205 C.ar    1  UNL1        0.0068
     30 C         141.1274  139.7570  169.8952 C.ar    1  UNL1        0.0003
     31 C         140.5790  140.6307  170.9841 C.ar    1  UNL1        0.0023
     32 C         140.2453  142.0649  170.6985 C.ar    1  UNL1        0.0298
     33 C         140.4601  142.6254  169.3238 C.ar    1  UNL1        0.1445
     34 F         140.1264  144.0597  169.0381 F       1  UNL1       -0.2040
@<TRIPOS>BOND
     1    24    25    2
     2    25    26   am
     3    26     1    1
     4     1     2   ar
     5     2     3   ar
     6     3     4   ar
     7     4     8    1
     8     8     9   ar
     9     9    10   ar
    10    10    11   ar
    11    11    13    1
    12    13    15    1
    13    15    16    1
    14    16    17    1
    15    17    18    1
    16    18    19    1
    17    19    20    1
    18    20    21    1
    19    21    22    1
    20    22    23    1
    21    11    12   ar
    22     4     5   ar
    23     5     6   ar
    24     6     7    1
    25    25    28    1
    26    28    29   ar
    27    29    30   ar
    28    30    31   ar
    29    31    32   ar
    30    32    33   ar
    31    33    34    1
    32     6     1   ar
    33    33    28   ar
    34    12     8   ar
    35    23    18    1
    36    26    27    1
    37    13    14    1
@<TRIPOS>MOLECULE
*****
 34 37 0 0 0
SMALL
GASTEIGER

@<TRIPOS>ATOM
      1 C         141.7399  138.5809  164.3581 C.ar    1  UNL1        0.0784
      2 C         143.0296  138.7950  163.6228 C.ar    1  UNL1        0.0171
      3 C         143.0792  138.6326  162.1325 C.ar    1  UNL1        0.0061
      4 C         141.8390  138.2561  161.3774 C.ar    1  UNL1        0.0575
      5 C         140.5492  138.0420  162.1126 C.ar    1  UNL1        0.0356
      6 C         140.4997  138.2044  163.6030 C.ar    1  UNL1        0.1536
      7 F         139.2098  137.9903  164.3383 F       1  UNL1       -0.2029
      8 C         141.8886  138.0937  159.8870 C.ar    1  UNL1        0.2513
      9 N         140.7819  138.4171  158.9275 N.ar    1  UNL1       -0.1058
     10 N         141.2629  138.1027  157.5420 N.ar    1  UNL1       -0.0923
     11 C         142.6670  137.5850  157.6451 C.ar    1  UNL1        0.3086
     12 O         143.0536  137.5794  159.0944 O.2     1  UNL1       -0.4048
     13 N         143.5324  137.1493  156.5000 N.pl3   1  UNL1       -0.2871
     14 H         144.5127  137.1777  156.5853 H       1  UNL1        0.1512
     15 C         142.9040  136.6704  155.2249 C.3     1  UNL1        0.0925
     16 C         142.9033  135.2078  154.8923 C.3     1  UNL1        0.0386
     17 C         142.2249  134.2311  155.8066 C.3     1  UNL1        0.0738
     18 N         143.0241  133.1563  156.4818 N.3     1  UNL1       -0.2726
     19 C         142.6145  131.7197  156.3461 C.3     1  UNL1        0.0721
     20 C         143.4136  130.6448  157.0213 C.3     1  UNL1        0.0174
     21 C         144.6225  131.0065  157.8323 C.3     1  UNL1        0.0029
     22 C         145.0322  132.4431  157.9680 C.3     1  UNL1        0.0174
     23 C         144.2330  133.5179  157.2928 C.3     1  UNL1        0.0721
     24 O         141.3320  141.3000  165.5580 O.2     1  UNL1       -0.2697
     25 C         141.4863  140.1028  166.4484 C.2     1  UNL1        0.2517
     26 N         141.6902  138.7432  165.8485 N.am    1  UNL1       -0.2786
     27 H         141.7915  137.9575  166.4329 H       1  UNL1        0.1552
     28 C         141.4367  140.2652  167.9388 C.ar    1  UNL1        0.0811
     29 C         142.6853  140.6025  168.6985 C.ar    1  UNL1        0.0068
     30 C         142.6356  140.7649  170.1888 C.ar    1  UNL1        0.0003
     31 C         141.3374  140.5899  170.9195 C.ar    1  UNL1        0.0023
     32 C         140.0888  140.2525  170.1598 C.ar    1  UNL1        0.0298
     33 C         140.1384  140.0902  168.6695 C.ar    1  UNL1        0.1445
     34 F         138.8898  139.7528  167.9097 F       1  UNL1       -0.2040
@<TRIPOS>BOND
     1    24    25    2
     2    25    26   am
     3    26     1    1
     4     1     2   ar
     5     2     3   ar
     6     3     4   ar
     7     4     8    1
     8     8     9   ar
     9     9    10   ar
    10    10    11   ar
    11    11    13    1
    12    13    15    1
    13    15    16    1
    14    16    17    1
    15    17    18    1
    16    18    19    1
    17    19    20    1
    18    20    21    1
    19    21    22    1
    20    22    23    1
    21    11    12   ar
    22     4     5   ar
    23     5     6   ar
    24     6     7    1
    25    25    28    1
    26    28    29   ar
    27    29    30   ar
    28    30    31   ar
    29    31    32   ar
    30    32    33   ar
    31    33    34    1
    32     6     1   ar
    33    33    28   ar
    34    12     8   ar
    35    23    18    1
    36    26    27    1
    37    13    14    1
@<TRIPOS>MOLECULE
*****
 34 37 0 0 0
SMALL
GASTEIGER

@<TRIPOS>ATOM
      1 C         143.0035  139.6813  164.6186 C.ar    1  UNL1        0.0784
      2 C         143.5391  140.7200  163.6783 C.ar    1  UNL1        0.0171
      3 C         143.5805  140.4469  162.2040 C.ar    1  UNL1        0.0061
      4 C         143.0864  139.1351  161.6700 C.ar    1  UNL1        0.0575
      5 C         142.5508  138.0965  162.6104 C.ar    1  UNL1        0.0356
      6 C         142.5094  138.3696  164.0847 C.ar    1  UNL1        0.1536
      7 F         141.9738  137.3309  165.0251 F       1  UNL1       -0.2029
      8 C         143.1278  138.8621  160.1956 C.ar    1  UNL1        0.2513
      9 N         143.9455  139.6082  159.1834 N.ar    1  UNL1       -0.1058
     10 N         143.6819  139.0023  157.8368 N.ar    1  UNL1       -0.0923
     11 C         142.7013  137.8815  158.0168 C.ar    1  UNL1        0.3086
     12 O         142.3588  137.7949  159.4746 O.2     1  UNL1       -0.4048
     13 N         142.1584  137.0019  156.9298 N.pl3   1  UNL1       -0.2871
     14 H         141.2175  136.7133  156.9540 H       1  UNL1        0.1512
     15 C         143.0492  136.5620  155.8059 C.3     1  UNL1        0.0925
     16 C         142.9684  135.1553  155.2916 C.3     1  UNL1        0.0386
     17 C         142.3079  134.0915  156.1174 C.3     1  UNL1        0.0738
     18 N         143.1253  132.9735  156.6934 N.3     1  UNL1       -0.2726
     19 C         142.6913  131.5506  156.5010 C.3     1  UNL1        0.0721
     20 C         143.5087  130.4327  157.0771 C.3     1  UNL1        0.0174
     21 C         144.7603  130.7376  157.8455 C.3     1  UNL1        0.0029
     22 C         145.1944  132.1604  158.0380 C.3     1  UNL1        0.0174
     23 C         144.3769  133.2784  157.4619 C.3     1  UNL1        0.0721
     24 O         140.5433  140.8724  165.8551 O.2     1  UNL1       -0.2697
     25 C         141.7320  140.5499  166.7112 C.2     1  UNL1        0.2517
     26 N         142.9621  139.9544  166.0930 N.am    1  UNL1       -0.2786
     27 H         143.7423  139.7427  166.6550 H       1  UNL1        0.1552
     28 C         141.6906  140.8230  168.1856 C.ar    1  UNL1        0.0811
     29 C         140.7533  140.0501  169.0655 C.ar    1  UNL1        0.0068
     30 C         140.7119  140.3232  170.5398 C.ar    1  UNL1        0.0003
     31 C         141.6078  141.3692  171.1342 C.ar    1  UNL1        0.0023
     32 C         142.5451  142.1420  170.2544 C.ar    1  UNL1        0.0298
     33 C         142.5865  141.8689  168.7801 C.ar    1  UNL1        0.1445
     34 F         143.5238  142.6418  167.9002 F       1  UNL1       -0.2040
@<TRIPOS>BOND
     1    24    25    2
     2    25    26   am
     3    26     1    1
     4     1     2   ar
     5     2     3   ar
     6     3     4   ar
     7     4     8    1
     8     8     9   ar
     9     9    10   ar
    10    10    11   ar
    11    11    13    1
    12    13    15    1
    13    15    16    1
    14    16    17    1
    15    17    18    1
    16    18    19    1
    17    19    20    1
    18    20    21    1
    19    21    22    1
    20    22    23    1
    21    11    12   ar
    22     4     5   ar
    23     5     6   ar
    24     6     7    1
    25    25    28    1
    26    28    29   ar
    27    29    30   ar
    28    30    31   ar
    29    31    32   ar
    30    32    33   ar
    31    33    34    1
    32     6     1   ar
    33    33    28   ar
    34    12     8   ar
    35    23    18    1
    36    26    27    1
    37    13    14    1
@<TRIPOS>MOLECULE
*****
 34 37 0 0 0
SMALL
GASTEIGER

@<TRIPOS>ATOM
      1 C         141.9113  144.6207  161.3559 C.ar    1  UNL1        0.0784
      2 C         142.7480  143.4154  161.6676 C.ar    1  UNL1        0.0171
      3 C         142.7788  142.8641  163.0622 C.ar    1  UNL1        0.0061
      4 C         141.9729  143.5180  164.1452 C.ar    1  UNL1        0.0575
      5 C         141.1361  144.7233  163.8335 C.ar    1  UNL1        0.0356
      6 C         141.1053  145.2746  162.4389 C.ar    1  UNL1        0.1536
      7 F         140.2686  146.4799  162.1271 F       1  UNL1       -0.2029
      8 C         142.0037  142.9667  165.5399 C.ar    1  UNL1        0.2513
      9 N         143.2317  142.5671  166.3030 N.ar    1  UNL1       -0.1058
     10 N         142.7990  142.0715  167.6510 N.ar    1  UNL1       -0.0923
     11 C         141.3034  142.1648  167.7210 C.ar    1  UNL1        0.3086
     12 O         140.8120  142.7180  166.4162 O.2     1  UNL1       -0.4048
     13 N         140.4494  141.7735  168.8904 N.pl3   1  UNL1       -0.2871
     14 H         140.4650  142.3131  169.7137 H       1  UNL1        0.1512
     15 C         139.5715  140.5603  168.8053 C.3     1  UNL1        0.0925
     16 C         139.6928  139.6271  167.6372 C.3     1  UNL1        0.0386
     17 C         138.4627  139.1750  166.9075 C.3     1  UNL1        0.0738
     18 N         138.4737  139.0718  165.4112 N.3     1  UNL1       -0.2726
     19 C         138.8808  137.7880  164.7508 C.3     1  UNL1        0.0721
     20 C         138.8918  137.6849  163.2544 C.3     1  UNL1        0.0174
     21 C         138.4956  138.8656  162.4183 C.3     1  UNL1        0.0029
     22 C         138.0884  140.1494  163.0787 C.3     1  UNL1        0.0174
     23 C         138.0775  140.2525  164.5751 C.3     1  UNL1        0.0721
     24 O         139.5221  144.1416  159.6059 O.2     1  UNL1       -0.2697
     25 C         140.6859  144.9325  159.0862 C.2     1  UNL1        0.2517
     26 N         141.8805  145.1721  159.9612 N.am    1  UNL1       -0.2786
     27 H         142.6443  145.6912  159.6201 H       1  UNL1        0.1552
     28 C         140.6551  145.4839  157.6916 C.ar    1  UNL1        0.0811
     29 C         139.6294  146.5111  157.3137 C.ar    1  UNL1        0.0068
     30 C         139.5986  147.0624  155.9190 C.ar    1  UNL1        0.0003
     31 C         140.5935  146.5866  154.9023 C.ar    1  UNL1        0.0023
     32 C         141.6192  145.5595  155.2802 C.ar    1  UNL1        0.0298
     33 C         141.6500  145.0081  156.6748 C.ar    1  UNL1        0.1445
     34 F         142.6757  143.9809  157.0528 F       1  UNL1       -0.2040
@<TRIPOS>BOND
     1    24    25    2
     2    25    26   am
     3    26     1    1
     4     1     2   ar
     5     2     3   ar
     6     3     4   ar
     7     4     8    1
     8     8     9   ar
     9     9    10   ar
    10    10    11   ar
    11    11    13    1
    12    13    15    1
    13    15    16    1
    14    16    17    1
    15    17    18    1
    16    18    19    1
    17    19    20    1
    18    20    21    1
    19    21    22    1
    20    22    23    1
    21    11    12   ar
    22     4     5   ar
    23     5     6   ar
    24     6     7    1
    25    25    28    1
    26    28    29   ar
    27    29    30   ar
    28    30    31   ar
    29    31    32   ar
    30    32    33   ar
    31    33    34    1
    32     6     1   ar
    33    33    28   ar
    34    12     8   ar
    35    23    18    1
    36    26    27    1
    37    13    14    1
@<TRIPOS>MOLECULE
*****
 34 37 0 0 0
SMALL
GASTEIGER

@<TRIPOS>ATOM
      1 C         142.6249  138.0087  158.2205 C.ar    1  UNL1        0.0784
      2 C         142.9623  137.6684  159.6418 C.ar    1  UNL1        0.0171
      3 C         143.4303  138.7418  160.5791 C.ar    1  UNL1        0.0061
      4 C         143.5610  140.1556  160.0951 C.ar    1  UNL1        0.0575
      5 C         143.2236  140.4958  158.6737 C.ar    1  UNL1        0.0356
      6 C         142.7555  139.4224  157.7364 C.ar    1  UNL1        0.1536
      7 F         142.4181  139.7627  156.3150 F       1  UNL1       -0.2029
      8 C         144.0291  141.2290  161.0325 C.ar    1  UNL1        0.2513
      9 N         145.0308  141.0605  162.1362 N.ar    1  UNL1       -0.1058
     10 N         145.1985  142.3867  162.8166 N.ar    1  UNL1       -0.0923
     11 C         144.3004  143.3750  162.1333 C.ar    1  UNL1        0.3086
     12 O         143.5777  142.6595  161.0307 O.2     1  UNL1       -0.4048
     13 N         144.1512  144.8243  162.4901 N.pl3   1  UNL1       -0.2871
     14 H         144.5171  145.5179  161.8950 H       1  UNL1        0.1512
     15 C         143.4444  145.2167  163.7536 C.3     1  UNL1        0.0925
     16 C         141.9498  145.3436  163.7686 C.3     1  UNL1        0.0386
     17 C         141.1057  144.2080  164.2662 C.3     1  UNL1        0.0738
     18 N         140.8552  143.0185  163.3875 N.3     1  UNL1       -0.2726
     19 C         141.2579  141.6485  163.8469 C.3     1  UNL1        0.0721
     20 C         141.0075  140.4590  162.9682 C.3     1  UNL1        0.0174
     21 C         140.3543  140.6394  161.6300 C.3     1  UNL1        0.0029
     22 C         139.9515  142.0093  161.1706 C.3     1  UNL1        0.0174
     23 C         140.2020  143.1989  162.0493 C.3     1  UNL1        0.0721
     24 O         144.4025  137.0888  155.9857 O.2     1  UNL1       -0.2697
     25 C         143.0456  136.4753  156.1658 C.2     1  UNL1        0.2517
     26 N         142.1568  136.9352  157.2831 N.am    1  UNL1       -0.2786
     27 H         141.2662  136.5325  157.4012 H       1  UNL1        0.1552
     28 C         142.5775  135.4018  155.2284 C.ar    1  UNL1        0.0811
     29 C         142.2916  135.7316  153.7933 C.ar    1  UNL1        0.0068
     30 C         141.8235  134.6582  152.8560 C.ar    1  UNL1        0.0003
     31 C         141.6413  133.2549  153.3538 C.ar    1  UNL1        0.0023
     32 C         141.9272  132.9251  154.7888 C.ar    1  UNL1        0.0298
     33 C         142.3953  133.9986  155.7261 C.ar    1  UNL1        0.1445
     34 F         142.6812  133.6688  157.1613 F       1  UNL1       -0.2040
@<TRIPOS>BOND
     1    24    25    2
     2    25    26   am
     3    26     1    1
     4     1     2   ar
     5     2     3   ar
     6     3     4   ar
     7     4     8    1
     8     8     9   ar
     9     9    10   ar
    10    10    11   ar
    11    11    13    1
    12    13    15    1
    13    15    16    1
    14    16    17    1
    15    17    18    1
    16    18    19    1
    17    19    20    1
    18    20    21    1
    19    21    22    1
    20    22    23    1
    21    11    12   ar
    22     4     5   ar
    23     5     6   ar
    24     6     7    1
    25    25    28    1
    26    28    29   ar
    27    29    30   ar
    28    30    31   ar
    29    31    32   ar
    30    32    33   ar
    31    33    34    1
    32     6     1   ar
    33    33    28   ar
    34    12     8   ar
    35    23    18    1
    36    26    27    1
    37    13    14    1
@<TRIPOS>MOLECULE
*****
 34 37 0 0 0
SMALL
GASTEIGER

@<TRIPOS>ATOM
      1 C         139.0765  140.5204  163.0336 C.ar    1  UNL1        0.0784
      2 C         139.4904  141.4631  161.9428 C.ar    1  UNL1        0.0171
      3 C         139.5125  140.9972  160.5172 C.ar    1  UNL1        0.0061
      4 C         139.1207  139.5886  160.1824 C.ar    1  UNL1        0.0575
      5 C         138.7068  138.6458  161.2731 C.ar    1  UNL1        0.0356
      6 C         138.6846  139.1117  162.6987 C.ar    1  UNL1        0.1536
      7 F         138.2707  138.1689  163.7896 F       1  UNL1       -0.2029
      8 C         139.1429  139.1227  158.7567 C.ar    1  UNL1        0.2513
      9 N         138.5570  139.8493  157.5825 N.ar    1  UNL1       -0.1058
     10 N         138.8068  139.0242  156.3550 N.ar    1  UNL1       -0.0923
     11 C         139.5470  137.7875  156.7706 C.ar    1  UNL1        0.3086
     12 O         139.7547  137.8484  158.2549 O.2     1  UNL1       -0.4048
     13 N         140.0001  136.6837  155.8615 N.pl3   1  UNL1       -0.2871
     14 H         139.3552  136.2446  155.2610 H       1  UNL1        0.1512
     15 C         141.4356  136.2489  155.8673 C.3     1  UNL1        0.0925
     16 C         141.8809  135.1199  154.9857 C.3     1  UNL1        0.0386
     17 C         141.8176  133.7074  155.4864 C.3     1  UNL1        0.0738
     18 N         143.0216  133.0847  156.1285 N.3     1  UNL1       -0.2726
     19 C         143.7043  131.9214  155.4723 C.3     1  UNL1        0.0721
     20 C         144.9083  131.2986  156.1144 C.3     1  UNL1        0.0174
     21 C         145.4297  131.8391  157.4129 C.3     1  UNL1        0.0029
     22 C         144.7470  133.0023  158.0692 C.3     1  UNL1        0.0174
     23 C         143.5429  133.6251  157.4270 C.3     1  UNL1        0.0721
     24 O         141.2118  139.6207  164.9391 O.2     1  UNL1       -0.2697
     25 C         140.1220  140.5364  165.4120 C.2     1  UNL1        0.2517
     26 N         139.0543  140.9863  164.4593 N.am    1  UNL1       -0.2786
     27 H         138.3390  141.5873  164.7697 H       1  UNL1        0.1552
     28 C         140.0998  141.0023  166.8377 C.ar    1  UNL1        0.0811
     29 C         139.5987  140.0895  167.9173 C.ar    1  UNL1        0.0068
     30 C         139.5766  140.5554  169.3429 C.ar    1  UNL1        0.0003
     31 C         140.0556  141.9341  169.6889 C.ar    1  UNL1        0.0023
     32 C         140.5566  142.8469  168.6093 C.ar    1  UNL1        0.0298
     33 C         140.5788  142.3810  167.1837 C.ar    1  UNL1        0.1445
     34 F         141.0798  143.2939  166.1039 F       1  UNL1       -0.2040
@<TRIPOS>BOND
     1    24    25    2
     2    25    26   am
     3    26     1    1
     4     1     2   ar
     5     2     3   ar
     6     3     4   ar
     7     4     8    1
     8     8     9   ar
     9     9    10   ar
    10    10    11   ar
    11    11    13    1
    12    13    15    1
    13    15    16    1
    14    16    17    1
    15    17    18    1
    16    18    19    1
    17    19    20    1
    18    20    21    1
    19    21    22    1
    20    22    23    1
    21    11    12   ar
    22     4     5   ar
    23     5     6   ar
    24     6     7    1
    25    25    28    1
    26    28    29   ar
    27    29    30   ar
    28    30    31   ar
    29    31    32   ar
    30    32    33   ar
    31    33    34    1
    32     6     1   ar
    33    33    28   ar
    34    12     8   ar
    35    23    18    1
    36    26    27    1
    37    13    14    1
@<TRIPOS>MOLECULE
*****
 34 37 0 0 0
SMALL
GASTEIGER

@<TRIPOS>ATOM
      1 C         142.0420  139.9590  164.1511 C.ar    1  UNL1        0.0784
      2 C         142.1823  141.0543  163.1359 C.ar    1  UNL1        0.0171
      3 C         142.4117  140.7146  161.6930 C.ar    1  UNL1        0.0061
      4 C         142.5008  139.2797  161.2653 C.ar    1  UNL1        0.0575
      5 C         142.3605  138.1844  162.2804 C.ar    1  UNL1        0.0356
      6 C         142.1311  138.5240  163.7233 C.ar    1  UNL1        0.1536
      7 F         141.9908  137.4287  164.7386 F       1  UNL1       -0.2029
      8 C         142.7302  138.9400  159.8223 C.ar    1  UNL1        0.2513
      9 N         143.8266  139.4805  158.9529 N.ar    1  UNL1       -0.1058
     10 N         143.6775  138.8749  157.5887 N.ar    1  UNL1       -0.0923
     11 C         142.4889  137.9601  157.6150 C.ar    1  UNL1        0.3086
     12 O         141.9035  138.0004  158.9955 O.2     1  UNL1       -0.4048
     13 N         141.9759  137.1477  156.4631 N.pl3   1  UNL1       -0.2871
     14 H         141.0226  136.9061  156.4171 H       1  UNL1        0.1512
     15 C         142.9153  136.7034  155.3815 C.3     1  UNL1        0.0925
     16 C         144.0060  135.7216  155.6919 C.3     1  UNL1        0.0386
     17 C         143.6979  134.4822  156.4787 C.3     1  UNL1        0.0738
     18 N         143.8116  133.1345  155.8301 N.3     1  UNL1       -0.2726
     19 C         144.7605  132.1132  156.3839 C.3     1  UNL1        0.0721
     20 C         144.8742  130.7656  155.7354 C.3     1  UNL1        0.0174
     21 C         144.0390  130.4390  154.5329 C.3     1  UNL1        0.0029
     22 C         143.0902  131.4602  153.9791 C.3     1  UNL1        0.0174
     23 C         142.9764  132.8080  154.6277 C.3     1  UNL1        0.0721
     24 O         139.4797  141.2719  164.9941 O.2     1  UNL1       -0.2697
     25 C         140.5315  140.9550  166.0155 C.2     1  UNL1        0.2517
     26 N         141.8127  140.2986  165.5940 N.am    1  UNL1       -0.2786
     27 H         142.5030  140.0906  166.2644 H       1  UNL1        0.1552
     28 C         140.3021  141.2947  167.4585 C.ar    1  UNL1        0.0811
     29 C         140.8741  142.5571  168.0320 C.ar    1  UNL1        0.0068
     30 C         140.6447  142.8967  169.4749 C.ar    1  UNL1        0.0003
     31 C         139.8433  141.9738  170.3443 C.ar    1  UNL1        0.0023
     32 C         139.2713  140.7113  169.7709 C.ar    1  UNL1        0.0298
     33 C         139.5007  140.3717  168.3280 C.ar    1  UNL1        0.1445
     34 F         138.9287  139.1092  167.7545 F       1  UNL1       -0.2040
@<TRIPOS>BOND
     1    24    25    2
     2    25    26   am
     3    26     1    1
     4     1     2   ar
     5     2     3   ar
     6     3     4   ar
     7     4     8    1
     8     8     9   ar
     9     9    10   ar
    10    10    11   ar
    11    11    13    1
    12    13    15    1
    13    15    16    1
    14    16    17    1
    15    17    18    1
    16    18    19    1
    17    19    20    1
    18    20    21    1
    19    21    22    1
    20    22    23    1
    21    11    12   ar
    22     4     5   ar
    23     5     6   ar
    24     6     7    1
    25    25    28    1
    26    28    29   ar
    27    29    30   ar
    28    30    31   ar
    29    31    32   ar
    30    32    33   ar
    31    33    34    1
    32     6     1   ar
    33    33    28   ar
    34    12     8   ar
    35    23    18    1
    36    26    27    1
    37    13    14    1
@<TRIPOS>MOLECULE
*****
 34 37 0 0 0
SMALL
GASTEIGER

@<TRIPOS>ATOM
      1 C         140.6068  143.5482  164.7218 C.ar    1  UNL1        0.0784
      2 C         141.7553  144.3296  164.1560 C.ar    1  UNL1        0.0171
      3 C         141.7933  144.6531  162.6918 C.ar    1  UNL1        0.0061
      4 C         140.6829  144.1951  161.7935 C.ar    1  UNL1        0.0575
      5 C         139.5343  143.4137  162.3593 C.ar    1  UNL1        0.0356
      6 C         139.4963  143.0902  163.8234 C.ar    1  UNL1        0.1536
      7 F         138.3477  142.3087  164.3893 F       1  UNL1       -0.2029
      8 C         140.7209  144.5186  160.3292 C.ar    1  UNL1        0.2513
      9 N         139.6123  144.2863  159.3458 N.ar    1  UNL1       -0.1058
     10 N         140.0805  144.7553  158.0001 N.ar    1  UNL1       -0.0923
     11 C         141.4785  145.2776  158.1519 C.ar    1  UNL1        0.3086
     12 O         141.8742  145.1313  159.5913 O.2     1  UNL1       -0.4048
     13 N         142.3309  145.8463  157.0565 N.pl3   1  UNL1       -0.2871
     14 H         142.8683  146.6547  157.2203 H       1  UNL1        0.1512
     15 C         142.3646  145.1832  155.7114 C.3     1  UNL1        0.0925
     16 C         141.5787  145.7596  154.5712 C.3     1  UNL1        0.0386
     17 C         140.1230  146.0754  154.7475 C.3     1  UNL1        0.0738
     18 N         139.6863  147.4902  154.9872 N.3     1  UNL1       -0.2726
     19 C         140.0155  148.5568  153.9853 C.3     1  UNL1        0.0721
     20 C         139.5787  149.9716  154.2249 C.3     1  UNL1        0.0174
     21 C         138.8126  150.3199  155.4666 C.3     1  UNL1        0.0029
     22 C         138.4833  149.2533  156.4686 C.3     1  UNL1        0.0174
     23 C         138.9202  147.8385  156.2289 C.3     1  UNL1        0.0721
     24 O         141.8769  141.0259  165.7343 O.2     1  UNL1       -0.2697
     25 C         141.2038  141.9635  166.6923 C.2     1  UNL1        0.2517
     26 N         140.5687  143.2247  166.1861 N.am    1  UNL1       -0.2786
     27 H         140.1269  143.8400  166.8148 H       1  UNL1        0.1552
     28 C         141.1657  141.6400  168.1565 C.ar    1  UNL1        0.0811
     29 C         139.9562  140.9779  168.7471 C.ar    1  UNL1        0.0068
     30 C         139.9182  140.6545  170.2113 C.ar    1  UNL1        0.0003
     31 C         141.0896  140.9931  171.0849 C.ar    1  UNL1        0.0023
     32 C         142.2991  141.6551  170.4943 C.ar    1  UNL1        0.0298
     33 C         142.3371  141.9786  169.0301 C.ar    1  UNL1        0.1445
     34 F         143.5466  142.6408  168.4394 F       1  UNL1       -0.2040
@<TRIPOS>BOND
     1    24    25    2
     2    25    26   am
     3    26     1    1
     4     1     2   ar
     5     2     3   ar
     6     3     4   ar
     7     4     8    1
     8     8     9   ar
     9     9    10   ar
    10    10    11   ar
    11    11    13    1
    12    13    15    1
    13    15    16    1
    14    16    17    1
    15    17    18    1
    16    18    19    1
    17    19    20    1
    18    20    21    1
    19    21    22    1
    20    22    23    1
    21    11    12   ar
    22     4     5   ar
    23     5     6   ar
    24     6     7    1
    25    25    28    1
    26    28    29   ar
    27    29    30   ar
    28    30    31   ar
    29    31    32   ar
    30    32    33   ar
    31    33    34    1
    32     6     1   ar
    33    33    28   ar
    34    12     8   ar
    35    23    18    1
    36    26    27    1
    37    13    14    1
