@<TRIPOS>MOLECULE
*****
 22 24 0 0 0
SMALL
GASTEIGER

@<TRIPOS>ATOM
      1 C         138.4793  140.5119  165.1824 C.2     1  UNL1       -0.0420
      2 C         139.6233  141.3178  165.7226 C.2     1  UNL1       -0.0239
      3 C         139.7604  142.5510  164.8797 C.ar    1  UNL1       -0.0078
      4 C         140.7130  143.7080  164.9414 C.ar    1  UNL1        0.0002
      5 C         140.6062  144.8214  163.9419 C.ar    1  UNL1        0.0114
      6 C         139.5469  144.7778  162.8808 C.ar    1  UNL1        0.0574
      7 CL        139.4401  145.8912  161.8814 Cl      1  UNL1       -0.0823
      8 C         138.5943  143.6207  162.8192 C.ar    1  UNL1        0.0074
      9 C         138.7011  142.5074  163.8186 C.ar    1  UNL1       -0.0176
     10 C         137.9093  141.2472  164.0057 C.3     1  UNL1        0.0480
     11 C         137.9909  139.2011  165.7239 C.3     1  UNL1        0.0394
     12 C         138.7359  137.9369  165.4129 C.3     1  UNL1        0.0765
     13 C         138.8072  137.7564  162.8220 C.3     1  UNL1        0.0897
     14 N         139.5209  137.8227  164.1398 N.3     1  UNL1       -0.2700
     15 C         141.0194  137.7749  164.1843 C.3     1  UNL1        0.0897
     16 C         140.4799  140.9542  166.8990 C.3     1  UNL1        0.0733
     17 C         140.2300  141.5910  168.2340 C.ar    1  UNL1        0.0849
     18 C         140.6838  142.9975  168.4908 C.ar    1  UNL1        0.0185
     19 C         140.4340  143.6343  169.8257 C.ar    1  UNL1        0.0238
     20 C         139.7303  142.8645  170.9039 C.ar    1  UNL1        0.1222
     21 N         139.2766  141.4581  170.6471 N.ar    1  UNL1       -0.1467
     22 N         139.5264  140.8213  169.3122 N.ar    1  UNL1       -0.1520
@<TRIPOS>BOND
     1    13    14    1
     2    14    15    1
     3    14    12    1
     4    12    11    1
     5    11     1    1
     6     1     2    2
     7     2    16    1
     8    16    17    1
     9    17    18   ar
    10    18    19   ar
    11    19    20   ar
    12    20    21   ar
    13    21    22   ar
    14     2     3    1
    15     3     4   ar
    16     4     5   ar
    17     5     6   ar
    18     6     7    1
    19     6     8   ar
    20     8     9   ar
    21     9    10    1
    22    10     1    1
    23    22    17   ar
    24     9     3   ar
@<TRIPOS>MOLECULE
*****
 22 24 0 0 0
SMALL
GASTEIGER

@<TRIPOS>ATOM
      1 C         143.7048  139.5623  164.0001 C.2     1  UNL1       -0.0420
      2 C         142.8599  138.8736  165.0305 C.2     1  UNL1       -0.0239
      3 C         141.5272  138.5728  164.4114 C.ar    1  UNL1       -0.0078
      4 C         140.2970  137.9059  164.9518 C.ar    1  UNL1        0.0002
      5 C         139.0881  137.7419  164.0792 C.ar    1  UNL1        0.0114
      6 C         139.1093  138.2447  162.6661 C.ar    1  UNL1        0.0574
      7 CL        137.9003  138.0807  161.7935 Cl      1  UNL1       -0.0823
      8 C         140.3394  138.9116  162.1257 C.ar    1  UNL1        0.0074
      9 C         141.5484  139.0756  162.9984 C.ar    1  UNL1       -0.0176
     10 C         142.8942  139.6872  162.7442 C.3     1  UNL1        0.0480
     11 C         145.1131  140.0420  164.1919 C.3     1  UNL1        0.0394
     12 C         145.5768  141.2971  163.5140 C.3     1  UNL1        0.0765
     13 C         144.4913  143.0761  165.0655 C.3     1  UNL1        0.0897
     14 N         144.8062  142.5722  163.6882 N.3     1  UNL1       -0.2700
     15 C         144.3504  143.3434  162.4851 C.3     1  UNL1        0.0897
     16 C         143.2749  138.5436  166.4337 C.3     1  UNL1        0.0733
     17 C         142.8951  139.4558  167.5623 C.ar    1  UNL1        0.0849
     18 C         142.4415  140.8563  167.2745 C.ar    1  UNL1        0.0185
     19 C         142.0617  141.7686  168.4030 C.ar    1  UNL1        0.0238
     20 C         142.1354  141.2802  169.8194 C.ar    1  UNL1        0.1222
     21 N         142.5890  139.8797  170.1072 N.ar    1  UNL1       -0.1467
     22 N         142.9689  138.9675  168.9787 N.ar    1  UNL1       -0.1520
@<TRIPOS>BOND
     1    13    14    1
     2    14    15    1
     3    14    12    1
     4    12    11    1
     5    11     1    1
     6     1     2    2
     7     2    16    1
     8    16    17    1
     9    17    18   ar
    10    18    19   ar
    11    19    20   ar
    12    20    21   ar
    13    21    22   ar
    14     2     3    1
    15     3     4   ar
    16     4     5   ar
    17     5     6   ar
    18     6     7    1
    19     6     8   ar
    20     8     9   ar
    21     9    10    1
    22    10     1    1
    23    22    17   ar
    24     9     3   ar
@<TRIPOS>MOLECULE
*****
 22 24 0 0 0
SMALL
GASTEIGER

@<TRIPOS>ATOM
      1 C         143.2116  141.1635  165.8661 C.2     1  UNL1       -0.0420
      2 C         142.3197  140.0607  166.3542 C.2     1  UNL1       -0.0239
      3 C         141.5138  140.5904  167.5031 C.ar    1  UNL1       -0.0078
      4 C         140.4723  139.9551  168.3758 C.ar    1  UNL1        0.0002
      5 C         139.8246  140.7502  169.4705 C.ar    1  UNL1        0.0114
      6 C         140.2184  142.1804  169.6924 C.ar    1  UNL1        0.0574
      7 CL        139.5706  142.9755  170.7871 Cl      1  UNL1       -0.0823
      8 C         141.2599  142.8157  168.8197 C.ar    1  UNL1        0.0074
      9 C         141.9076  142.0206  167.7250 C.ar    1  UNL1       -0.0176
     10 C         142.9569  142.3748  166.7133 C.3     1  UNL1        0.0480
     11 C         144.1869  141.0712  164.7302 C.3     1  UNL1        0.0394
     12 C         144.9450  142.2890  164.2918 C.3     1  UNL1        0.0765
     13 C         144.8479  142.2149  161.6965 C.3     1  UNL1        0.0897
     14 N         144.6156  142.9474  162.9848 N.3     1  UNL1       -0.2700
     15 C         144.0541  144.3381  162.9662 C.3     1  UNL1        0.0897
     16 C         142.2466  138.6719  165.7921 C.3     1  UNL1        0.0733
     17 C         141.2545  138.3504  164.7139 C.ar    1  UNL1        0.0849
     18 C         139.8078  138.7019  164.8968 C.ar    1  UNL1        0.0185
     19 C         138.8157  138.3806  163.8187 C.ar    1  UNL1        0.0238
     20 C         139.2703  137.7076  162.5576 C.ar    1  UNL1        0.1222
     21 N         140.7170  137.3561  162.3746 N.ar    1  UNL1       -0.1467
     22 N         141.7091  137.6774  163.4528 N.ar    1  UNL1       -0.1520
@<TRIPOS>BOND
     1    13    14    1
     2    14    15    1
     3    14    12    1
     4    12    11    1
     5    11     1    1
     6     1     2    2
     7     2    16    1
     8    16    17    1
     9    17    18   ar
    10    18    19   ar
    11    19    20   ar
    12    20    21   ar
    13    21    22   ar
    14     2     3    1
    15     3     4   ar
    16     4     5   ar
    17     5     6   ar
    18     6     7    1
    19     6     8   ar
    20     8     9   ar
    21     9    10    1
    22    10     1    1
    23    22    17   ar
    24     9     3   ar
@<TRIPOS>MOLECULE
*****
 22 24 0 0 0
SMALL
GASTEIGER

@<TRIPOS>ATOM
      1 C         138.1625  141.5241  164.2724 C.2     1  UNL1       -0.0420
      2 C         138.8816  142.6746  164.9121 C.2     1  UNL1       -0.0239
      3 C         139.6200  142.1521  166.1087 C.ar    1  UNL1       -0.0078
      4 C         140.4976  142.8277  167.1203 C.ar    1  UNL1        0.0002
      5 C         141.1126  142.0298  168.2317 C.ar    1  UNL1        0.0114
      6 C         140.8499  140.5564  168.3315 C.ar    1  UNL1        0.0574
      7 CL        141.4648  139.7585  169.4430 Cl      1  UNL1       -0.0823
      8 C         139.9722  139.8808  167.3199 C.ar    1  UNL1        0.0074
      9 C         139.3573  140.6787  166.2085 C.ar    1  UNL1       -0.0176
     10 C         138.4566  140.2905  165.0736 C.3     1  UNL1        0.0480
     11 C         137.3008  141.5947  163.0467 C.3     1  UNL1        0.0394
     12 C         137.9226  141.4898  161.6857 C.3     1  UNL1        0.0765
     13 C         137.7222  138.8995  161.6696 C.3     1  UNL1        0.0897
     14 N         137.8563  140.1967  160.9284 N.3     1  UNL1       -0.2700
     15 C         137.9241  140.2008  159.4299 C.3     1  UNL1        0.0897
     16 C         138.8652  144.0977  164.4384 C.3     1  UNL1        0.0733
     17 C         139.5506  144.4696  163.1569 C.ar    1  UNL1        0.0849
     18 C         140.8700  143.8493  162.8047 C.ar    1  UNL1        0.0185
     19 C         141.5554  144.2211  161.5233 C.ar    1  UNL1        0.0238
     20 C         140.9213  145.2134  160.5942 C.ar    1  UNL1        0.1222
     21 N         139.6018  145.8338  160.9465 N.ar    1  UNL1       -0.1467
     22 N         138.9164  145.4619  162.2278 N.ar    1  UNL1       -0.1520
@<TRIPOS>BOND
     1    13    14    1
     2    14    15    1
     3    14    12    1
     4    12    11    1
     5    11     1    1
     6     1     2    2
     7     2    16    1
     8    16    17    1
     9    17    18   ar
    10    18    19   ar
    11    19    20   ar
    12    20    21   ar
    13    21    22   ar
    14     2     3    1
    15     3     4   ar
    16     4     5   ar
    17     5     6   ar
    18     6     7    1
    19     6     8   ar
    20     8     9   ar
    21     9    10    1
    22    10     1    1
    23    22    17   ar
    24     9     3   ar
@<TRIPOS>MOLECULE
*****
 22 24 0 0 0
SMALL
GASTEIGER

@<TRIPOS>ATOM
      1 C         141.4573  139.4420  166.0571 C.2     1  UNL1       -0.0420
      2 C         140.3328  140.3259  166.5090 C.2     1  UNL1       -0.0239
      3 C         140.8495  141.2095  167.6054 C.ar    1  UNL1       -0.0078
      4 C         140.1918  142.2780  168.4274 C.ar    1  UNL1        0.0002
      5 C         140.9780  143.0088  169.4751 C.ar    1  UNL1        0.0114
      6 C         142.4220  142.6710  169.7009 C.ar    1  UNL1        0.0574
      7 CL        143.2082  143.4019  170.7487 Cl      1  UNL1       -0.0823
      8 C         143.0797  141.6025  168.8789 C.ar    1  UNL1        0.0074
      9 C         142.2935  140.8718  167.8312 C.ar    1  UNL1       -0.0176
     10 C         142.6691  139.7794  166.8743 C.3     1  UNL1        0.0480
     11 C         141.3832  138.4032  164.9776 C.3     1  UNL1        0.0394
     12 C         141.3494  138.8197  163.5370 C.3     1  UNL1        0.0765
     13 C         139.0735  137.6093  163.2124 C.3     1  UNL1        0.0897
     14 N         140.1335  138.5410  162.7040 N.3     1  UNL1       -0.2700
     15 C         139.9776  139.1939  161.3626 C.3     1  UNL1        0.0897
     16 C         138.9366  140.3261  165.9607 C.3     1  UNL1        0.0733
     17 C         138.5563  141.2917  164.8775 C.ar    1  UNL1        0.0849
     18 C         139.0716  142.6999  164.9133 C.ar    1  UNL1        0.0185
     19 C         138.6914  143.6655  163.8303 C.ar    1  UNL1        0.0238
     20 C         137.7958  143.2228  162.7114 C.ar    1  UNL1        0.1222
     21 N         137.2805  141.8146  162.6756 N.ar    1  UNL1       -0.1467
     22 N         137.6607  140.8490  163.7586 N.ar    1  UNL1       -0.1520
@<TRIPOS>BOND
     1    13    14    1
     2    14    15    1
     3    14    12    1
     4    12    11    1
     5    11     1    1
     6     1     2    2
     7     2    16    1
     8    16    17    1
     9    17    18   ar
    10    18    19   ar
    11    19    20   ar
    12    20    21   ar
    13    21    22   ar
    14     2     3    1
    15     3     4   ar
    16     4     5   ar
    17     5     6   ar
    18     6     7    1
    19     6     8   ar
    20     8     9   ar
    21     9    10    1
    22    10     1    1
    23    22    17   ar
    24     9     3   ar
@<TRIPOS>MOLECULE
*****
 22 24 0 0 0
SMALL
GASTEIGER

@<TRIPOS>ATOM
      1 C         140.7786  138.4335  164.8336 C.2     1  UNL1       -0.0420
      2 C         140.8323  139.7252  165.5943 C.2     1  UNL1       -0.0239
      3 C         142.1196  140.4134  165.2489 C.ar    1  UNL1       -0.0078
      4 C         142.7120  141.7170  165.6956 C.ar    1  UNL1        0.0002
      5 C         144.0464  142.1543  165.1681 C.ar    1  UNL1        0.0114
      6 C         144.7882  141.2880  164.1938 C.ar    1  UNL1        0.0574
      7 CL        146.1226  141.7253  163.6663 Cl      1  UNL1       -0.0823
      8 C         144.1958  139.9844  163.7471 C.ar    1  UNL1        0.0074
      9 C         142.8614  139.5471  164.2746 C.ar    1  UNL1       -0.0176
     10 C         142.0327  138.3235  164.0180 C.3     1  UNL1        0.0480
     11 C         139.6661  137.4284  164.8802 C.3     1  UNL1        0.0394
     12 C         138.5941  137.4469  163.8313 C.3     1  UNL1        0.0765
     13 C         138.0622  139.8230  162.9250 C.3     1  UNL1        0.0897
     14 N         138.6466  138.4563  162.7230 N.3     1  UNL1       -0.2700
     15 C         139.2834  138.0991  161.4127 C.3     1  UNL1        0.0897
     16 C         139.7830  140.2385  166.5353 C.3     1  UNL1        0.0733
     17 C         139.9642  140.0852  168.0165 C.ar    1  UNL1        0.0849
     18 C         141.3442  140.0360  168.6022 C.ar    1  UNL1        0.0185
     19 C         141.5254  139.8827  170.0833 C.ar    1  UNL1        0.0238
     20 C         140.3265  139.7787  170.9787 C.ar    1  UNL1        0.1222
     21 N         138.9464  139.8279  170.3930 N.ar    1  UNL1       -0.1467
     22 N         138.7652  139.9812  168.9119 N.ar    1  UNL1       -0.1520
@<TRIPOS>BOND
     1    13    14    1
     2    14    15    1
     3    14    12    1
     4    12    11    1
     5    11     1    1
     6     1     2    2
     7     2    16    1
     8    16    17    1
     9    17    18   ar
    10    18    19   ar
    11    19    20   ar
    12    20    21   ar
    13    21    22   ar
    14     2     3    1
    15     3     4   ar
    16     4     5   ar
    17     5     6   ar
    18     6     7    1
    19     6     8   ar
    20     8     9   ar
    21     9    10    1
    22    10     1    1
    23    22    17   ar
    24     9     3   ar
@<TRIPOS>MOLECULE
*****
 22 24 0 0 0
SMALL
GASTEIGER

@<TRIPOS>ATOM
      1 C         143.0793  142.4101  165.8456 C.2     1  UNL1       -0.0420
      2 C         141.7709  141.7742  165.4800 C.2     1  UNL1       -0.0239
      3 C         141.1605  141.2169  166.7318 C.ar    1  UNL1       -0.0078
      4 C         139.8771  140.4817  166.9814 C.ar    1  UNL1        0.0002
      5 C         139.5249  140.0380  168.3703 C.ar    1  UNL1        0.0114
      6 C         140.4561  140.3295  169.5095 C.ar    1  UNL1        0.0574
      7 CL        140.1039  139.8858  170.8985 Cl      1  UNL1       -0.0823
      8 C         141.7395  141.0647  169.2599 C.ar    1  UNL1        0.0074
      9 C         142.0917  141.5084  167.8710 C.ar    1  UNL1       -0.0176
     10 C         143.2776  142.2458  167.3233 C.3     1  UNL1        0.0480
     11 C         144.0236  143.0908  164.8996 C.3     1  UNL1        0.0394
     12 C         145.1293  142.3104  164.2526 C.3     1  UNL1        0.0765
     13 C         145.0096  139.7151  164.2419 C.3     1  UNL1        0.0897
     14 N         144.8234  141.0271  163.5389 N.3     1  UNL1       -0.2700
     15 C         144.3313  141.0556  162.1222 C.3     1  UNL1        0.0897
     16 C         141.1771  141.7073  164.1042 C.3     1  UNL1        0.0733
     17 C         140.0252  142.5967  163.7404 C.ar    1  UNL1        0.0849
     18 C         139.3687  143.4414  164.7917 C.ar    1  UNL1        0.0185
     19 C         138.2169  144.3308  164.4280 C.ar    1  UNL1        0.0238
     20 C         137.7216  144.3754  163.0128 C.ar    1  UNL1        0.1222
     21 N         138.3781  143.5306  161.9615 N.ar    1  UNL1       -0.1467
     22 N         139.5299  142.6413  162.3252 N.ar    1  UNL1       -0.1520
@<TRIPOS>BOND
     1    13    14    1
     2    14    15    1
     3    14    12    1
     4    12    11    1
     5    11     1    1
     6     1     2    2
     7     2    16    1
     8    16    17    1
     9    17    18   ar
    10    18    19   ar
    11    19    20   ar
    12    20    21   ar
    13    21    22   ar
    14     2     3    1
    15     3     4   ar
    16     4     5   ar
    17     5     6   ar
    18     6     7    1
    19     6     8   ar
    20     8     9   ar
    21     9    10    1
    22    10     1    1
    23    22    17   ar
    24     9     3   ar
@<TRIPOS>MOLECULE
*****
 22 24 0 0 0
SMALL
GASTEIGER

@<TRIPOS>ATOM
      1 C         141.0173  142.3948  165.0129 C.2     1  UNL1       -0.0420
      2 C         139.9544  141.5674  165.6730 C.2     1  UNL1       -0.0239
      3 C         140.4898  141.0904  166.9905 C.ar    1  UNL1       -0.0078
      4 C         139.8883  140.2399  168.0698 C.ar    1  UNL1        0.0002
      5 C         140.6805  139.9220  169.3031 C.ar    1  UNL1        0.0114
      6 C         142.0743  140.4545  169.4572 C.ar    1  UNL1        0.0574
      7 CL        142.8666  140.1365  170.6907 Cl      1  UNL1       -0.0823
      8 C         142.6759  141.3050  168.3780 C.ar    1  UNL1        0.0074
      9 C         141.8836  141.6229  167.1447 C.ar    1  UNL1       -0.0176
     10 C         142.2096  142.4291  165.9224 C.3     1  UNL1        0.0480
     11 C         140.9072  143.0694  163.6777 C.3     1  UNL1        0.0394
     12 C         140.6578  144.5465  163.6020 C.3     1  UNL1        0.0765
     13 C         138.1283  144.4695  163.0136 C.3     1  UNL1        0.0897
     14 N         139.4891  145.0708  162.8213 N.3     1  UNL1       -0.2700
     15 C         139.6812  146.1963  161.8485 C.3     1  UNL1        0.0897
     16 C         138.5948  141.2694  165.1139 C.3     1  UNL1        0.0733
     17 C         138.4359  140.2341  164.0401 C.ar    1  UNL1        0.0849
     18 C         138.9576  138.8443  164.2551 C.ar    1  UNL1        0.0185
     19 C         138.7988  137.8090  163.1815 C.ar    1  UNL1        0.0238
     20 C         138.1181  138.1635  161.8926 C.ar    1  UNL1        0.1222
     21 N         137.5964  139.5533  161.6775 N.ar    1  UNL1       -0.1467
     22 N         137.7553  140.5886  162.7512 N.ar    1  UNL1       -0.1520
@<TRIPOS>BOND
     1    13    14    1
     2    14    15    1
     3    14    12    1
     4    12    11    1
     5    11     1    1
     6     1     2    2
     7     2    16    1
     8    16    17    1
     9    17    18   ar
    10    18    19   ar
    11    19    20   ar
    12    20    21   ar
    13    21    22   ar
    14     2     3    1
    15     3     4   ar
    16     4     5   ar
    17     5     6   ar
    18     6     7    1
    19     6     8   ar
    20     8     9   ar
    21     9    10    1
    22    10     1    1
    23    22    17   ar
    24     9     3   ar
@<TRIPOS>MOLECULE
*****
 22 24 0 0 0
SMALL
GASTEIGER

@<TRIPOS>ATOM
      1 C         139.0600  139.5489  165.7304 C.2     1  UNL1       -0.0420
      2 C         139.9813  140.7258  165.6039 C.2     1  UNL1       -0.0239
      3 C         140.2911  141.2226  166.9849 C.ar    1  UNL1       -0.0078
      4 C         141.1434  142.3547  167.4765 C.ar    1  UNL1        0.0002
      5 C         141.2659  142.6170  168.9483 C.ar    1  UNL1        0.0114
      6 C         140.5361  141.7471  169.9284 C.ar    1  UNL1        0.0574
      7 CL        140.6586  142.0094  171.4003 Cl      1  UNL1       -0.0823
      8 C         139.6837  140.6150  169.4368 C.ar    1  UNL1        0.0074
      9 C         139.5612  140.3528  167.9650 C.ar    1  UNL1       -0.0176
     10 C         138.8004  139.3183  167.1897 C.3     1  UNL1        0.0480
     11 C         138.4971  138.7438  164.5968 C.3     1  UNL1        0.0394
     12 C         139.2899  137.6111  164.0152 C.3     1  UNL1        0.0765
     13 C         141.5358  137.7197  162.7135 C.3     1  UNL1        0.0897
     14 N         140.0381  137.8019  162.7292 N.3     1  UNL1       -0.2700
     15 C         139.2886  138.0748  161.4589 C.3     1  UNL1        0.0897
     16 C         140.5015  141.3043  164.3214 C.3     1  UNL1        0.0733
     17 C         139.9220  142.5795  163.7843 C.ar    1  UNL1        0.0849
     18 C         138.4385  142.7994  163.8125 C.ar    1  UNL1        0.0185
     19 C         137.8589  144.0744  163.2755 C.ar    1  UNL1        0.0238
     20 C         138.7629  145.1295  162.7102 C.ar    1  UNL1        0.1222
     21 N         140.2464  144.9095  162.6820 N.ar    1  UNL1       -0.1467
     22 N         140.8260  143.6345  163.2190 N.ar    1  UNL1       -0.1520
@<TRIPOS>BOND
     1    13    14    1
     2    14    15    1
     3    14    12    1
     4    12    11    1
     5    11     1    1
     6     1     2    2
     7     2    16    1
     8    16    17    1
     9    17    18   ar
    10    18    19   ar
    11    19    20   ar
    12    20    21   ar
    13    21    22   ar
    14     2     3    1
    15     3     4   ar
    16     4     5   ar
    17     5     6   ar
    18     6     7    1
    19     6     8   ar
    20     8     9   ar
    21     9    10    1
    22    10     1    1
    23    22    17   ar
    24     9     3   ar
