@<TRIPOS>MOLECULE
*****
 29 30 0 0 0
SMALL
GASTEIGER

@<TRIPOS>ATOM
      1 C         145.2130  141.5133  162.5295 C.3     1  UNL1        0.1697
      2 O         145.5830  142.5176  161.4787 O.3     1  UNL1       -0.3793
      3 H         145.1412  142.2914  160.6453 H       1  UNL1        0.2106
      4 C         145.7689  141.6399  163.9169 C.3     1  UNL1        0.2358
      5 O         145.3023  142.7482  164.8136 O.3     1  UNL1       -0.4728
      6 C         141.2209  144.5502  164.2264 C.ar    1  UNL1        0.0646
      7 C         142.4390  145.2776  163.7395 C.ar    1  UNL1        0.0190
      8 C         143.7994  144.6769  163.9352 C.ar    1  UNL1        0.0382
      9 C         143.9418  143.3489  164.6179 C.ar    1  UNL1        0.1388
     10 C         142.7237  142.6215  165.1047 C.ar    1  UNL1        0.0382
     11 C         141.3632  143.2222  164.9090 C.ar    1  UNL1        0.0190
     12 N         139.8604  145.1509  164.0307 N.pl3   1  UNL1       -0.2187
     13 H         139.6886  146.0805  164.3055 H       1  UNL1        0.1734
     14 C         137.6630  143.5195  162.8018 C.3     1  UNL1        0.1996
     15 S         138.7617  144.3352  163.4163 S.O2    1  UNL1        0.0558
     16 O         139.5029  144.3191  162.1123 O.2     1  UNL1       -0.1544
     17 O         138.0206  144.3512  164.7203 O.2     1  UNL1       -0.1544
     18 C         144.2870  140.3822  162.1930 C.3     1  UNL1        0.1021
     19 N         144.1745  139.2050  163.1159 N.3     1  UNL1       -0.2951
     20 H         144.9950  139.2263  163.7215 H       1  UNL1        0.1233
     21 C         142.9790  139.0653  164.0110 C.3     1  UNL1        0.0734
     22 C         143.1613  138.6983  165.4539 C.3     1  UNL1        0.0434
     23 C         142.1814  139.1836  166.4808 C.ar    1  UNL1       -0.0207
     24 C         140.7452  139.3976  166.1047 C.ar    1  UNL1       -0.0034
     25 C         139.7653  139.8828  167.1315 C.ar    1  UNL1        0.0111
     26 C         140.2217  140.1540  168.5344 C.ar    1  UNL1        0.0577
     27 CL        139.2417  140.6392  169.5613 Cl      1  UNL1       -0.0822
     28 C         141.6578  139.9400  168.9105 C.ar    1  UNL1        0.0111
     29 C         142.6377  139.4548  167.8837 C.ar    1  UNL1       -0.0034
@<TRIPOS>BOND
     1    14    15    1
     2    15    16    2
     3    15    17    2
     4    15    12    1
     5    12     6    1
     6     6     7   ar
     7     7     8   ar
     8     8     9   ar
     9     9     5    1
    10     5     4    1
    11     4     1    1
    12     1     2    1
    13     1    18    1
    14    18    19    1
    15    19    21    1
    16    21    22    1
    17    22    23    1
    18    23    24   ar
    19    24    25   ar
    20    25    26   ar
    21    26    27    1
    22    26    28   ar
    23    28    29   ar
    24     9    10   ar
    25    10    11   ar
    26    11     6   ar
    27    29    23   ar
    28    12    13    1
    29     2     3    1
    30    19    20    1
@<TRIPOS>MOLECULE
*****
 29 30 0 0 0
SMALL
GASTEIGER

@<TRIPOS>ATOM
      1 C         140.8509  140.5079  170.5055 C.3     1  UNL1        0.1697
      2 O         140.6763  140.6337  171.9899 O.3     1  UNL1       -0.3793
      3 H         139.7485  140.8330  172.1906 H       1  UNL1        0.2106
      4 C         142.2027  140.2004  169.9326 C.3     1  UNL1        0.2358
      5 O         142.3505  139.1307  168.8916 O.3     1  UNL1       -0.4728
      6 C         143.6980  140.2067  164.7352 C.ar    1  UNL1        0.0646
      7 C         143.0227  141.2342  165.5942 C.ar    1  UNL1        0.0190
      8 C         142.5735  140.8756  166.9797 C.ar    1  UNL1        0.0382
      9 C         142.7996  139.4893  167.5061 C.ar    1  UNL1        0.1388
     10 C         143.4749  138.4618  166.6471 C.ar    1  UNL1        0.0382
     11 C         143.9241  138.8204  165.2616 C.ar    1  UNL1        0.0190
     12 N         144.1472  140.5653  163.3497 N.pl3   1  UNL1       -0.2187
     13 H         144.3064  139.8568  162.6849 H       1  UNL1        0.1734
     14 C         144.5604  143.4418  162.6042 C.3     1  UNL1        0.1996
     15 S         144.3538  142.0035  162.9770 S.O2    1  UNL1        0.0558
     16 O         145.7063  141.9772  163.6249 O.2     1  UNL1       -0.1544
     17 O         143.0012  142.0299  162.3290 O.2     1  UNL1       -0.1544
     18 C         139.6736  140.6896  169.5938 C.3     1  UNL1        0.1021
     19 N         139.3900  139.6768  168.5243 N.3     1  UNL1       -0.2951
     20 H         138.5954  139.1238  168.8457 H       1  UNL1        0.1233
     21 C         139.0680  140.1280  167.1305 C.3     1  UNL1        0.0734
     22 C         138.6339  139.1282  166.1000 C.3     1  UNL1        0.0434
     23 C         139.5396  138.7929  164.9521 C.ar    1  UNL1       -0.0207
     24 C         140.2150  137.4548  164.8958 C.ar    1  UNL1       -0.0034
     25 C         141.1207  137.1196  163.7480 C.ar    1  UNL1        0.0111
     26 C         141.3509  138.1225  162.6566 C.ar    1  UNL1        0.0577
     27 CL        142.2565  137.7873  161.5087 Cl      1  UNL1       -0.0822
     28 C         140.6754  139.4606  162.7130 C.ar    1  UNL1        0.0111
     29 C         139.7698  139.7958  163.8607 C.ar    1  UNL1       -0.0034
@<TRIPOS>BOND
     1    14    15    1
     2    15    16    2
     3    15    17    2
     4    15    12    1
     5    12     6    1
     6     6     7   ar
     7     7     8   ar
     8     8     9   ar
     9     9     5    1
    10     5     4    1
    11     4     1    1
    12     1     2    1
    13     1    18    1
    14    18    19    1
    15    19    21    1
    16    21    22    1
    17    22    23    1
    18    23    24   ar
    19    24    25   ar
    20    25    26   ar
    21    26    27    1
    22    26    28   ar
    23    28    29   ar
    24     9    10   ar
    25    10    11   ar
    26    11     6   ar
    27    29    23   ar
    28    12    13    1
    29     2     3    1
    30    19    20    1
@<TRIPOS>MOLECULE
*****
 29 30 0 0 0
SMALL
GASTEIGER

@<TRIPOS>ATOM
      1 C         140.7039  145.3584  162.7135 C.3     1  UNL1        0.1697
      2 O         140.2038  146.7041  162.2789 O.3     1  UNL1       -0.3793
      3 H         140.7132  147.0056  161.5105 H       1  UNL1        0.2106
      4 C         140.0772  144.6692  163.8893 C.3     1  UNL1        0.2358
      5 O         139.6965  143.2215  163.7946 O.3     1  UNL1       -0.4728
      6 C         139.6864  140.6514  167.4884 C.ar    1  UNL1        0.0646
      7 C         139.0710  140.1422  166.2188 C.ar    1  UNL1        0.0190
      8 C         139.0743  140.9989  164.9875 C.ar    1  UNL1        0.0382
      9 C         139.6931  142.3648  165.0259 C.ar    1  UNL1        0.1388
     10 C         140.3086  142.8739  166.2955 C.ar    1  UNL1        0.0382
     11 C         140.3053  142.0172  167.5267 C.ar    1  UNL1        0.0190
     12 N         139.6831  139.7947  168.7197 N.pl3   1  UNL1       -0.2187
     13 H         139.2785  138.8975  168.6940 H       1  UNL1        0.1734
     14 C         140.9092  140.8151  171.2605 C.3     1  UNL1        0.1996
     15 S         140.2961  140.3049  169.9900 S.O2    1  UNL1        0.0558
     16 O         141.6069  139.6845  169.6067 O.2     1  UNL1       -0.1544
     17 O         138.9853  140.9252  170.3734 O.2     1  UNL1       -0.1544
     18 C         141.8307  144.7017  161.9724 C.3     1  UNL1        0.1021
     19 N         143.2513  144.9956  162.3539 N.3     1  UNL1       -0.2951
     20 H         143.2187  145.7030  163.0881 H       1  UNL1        0.1233
     21 C         144.1370  143.8931  162.8540 C.3     1  UNL1        0.0734
     22 C         143.9180  143.3170  164.2215 C.3     1  UNL1        0.0434
     23 C         143.3742  141.9271  164.3715 C.ar    1  UNL1       -0.0207
     24 C         143.4610  141.2265  165.6949 C.ar    1  UNL1       -0.0034
     25 C         142.9173  139.8366  165.8449 C.ar    1  UNL1        0.0111
     26 C         142.2867  139.1473  164.6713 C.ar    1  UNL1        0.0577
     27 CL        141.7429  137.7573  164.8213 Cl      1  UNL1       -0.0822
     28 C         142.1999  139.8479  163.3478 C.ar    1  UNL1        0.0111
     29 C         142.7436  141.2377  163.1979 C.ar    1  UNL1       -0.0034
@<TRIPOS>BOND
     1    14    15    1
     2    15    16    2
     3    15    17    2
     4    15    12    1
     5    12     6    1
     6     6     7   ar
     7     7     8   ar
     8     8     9   ar
     9     9     5    1
    10     5     4    1
    11     4     1    1
    12     1     2    1
    13     1    18    1
    14    18    19    1
    15    19    21    1
    16    21    22    1
    17    22    23    1
    18    23    24   ar
    19    24    25   ar
    20    25    26   ar
    21    26    27    1
    22    26    28   ar
    23    28    29   ar
    24     9    10   ar
    25    10    11   ar
    26    11     6   ar
    27    29    23   ar
    28    12    13    1
    29     2     3    1
    30    19    20    1
@<TRIPOS>MOLECULE
*****
 29 30 0 0 0
SMALL
GASTEIGER

@<TRIPOS>ATOM
      1 C         137.7991  139.5052  161.6699 C.3     1  UNL1        0.1697
      2 O         136.7506  139.4760  160.5978 O.3     1  UNL1       -0.3793
      3 H         137.0024  138.8329  159.9167 H       1  UNL1        0.2106
      4 C         137.6447  140.4244  162.8452 C.3     1  UNL1        0.2358
      5 O         138.8555  140.8850  163.6013 O.3     1  UNL1       -0.4728
      6 C         139.2165  140.0340  168.0053 C.ar    1  UNL1        0.0646
      7 C         138.4700  139.0838  167.1166 C.ar    1  UNL1        0.0190
      8 C         138.3496  139.3675  165.6486 C.ar    1  UNL1        0.0382
      9 C         138.9758  140.6013  165.0693 C.ar    1  UNL1        0.1388
     10 C         139.7223  141.5515  165.9581 C.ar    1  UNL1        0.0382
     11 C         139.8427  141.2678  167.4261 C.ar    1  UNL1        0.0190
     12 N         139.3368  139.7503  169.4734 N.pl3   1  UNL1       -0.2187
     13 H         138.7318  139.1017  169.9006 H       1  UNL1        0.1734
     14 C         141.4212  141.1592  171.1075 C.3     1  UNL1        0.1996
     15 S         140.3790  140.4547  170.2904 S.O2    1  UNL1        0.0558
     16 O         139.3642  141.4803  170.7006 O.2     1  UNL1       -0.1544
     17 O         141.3938  139.4292  169.8802 O.2     1  UNL1       -0.1544
     18 C         139.0023  138.6153  161.5668 C.3     1  UNL1        0.1021
     19 N         139.2997  137.6271  162.6554 N.3     1  UNL1       -0.2951
     20 H         138.7893  136.7743  162.4265 H       1  UNL1        0.1233
     21 C         140.7169  137.2220  162.9339 C.3     1  UNL1        0.0734
     22 C         141.2877  137.3886  164.3110 C.3     1  UNL1        0.0434
     23 C         141.9596  138.6740  164.6939 C.ar    1  UNL1       -0.0207
     24 C         142.1981  139.7330  163.6588 C.ar    1  UNL1       -0.0034
     25 C         142.8699  141.0182  164.0417 C.ar    1  UNL1        0.0111
     26 C         143.3034  141.2445  165.4598 C.ar    1  UNL1        0.0577
     27 CL        143.9753  142.5298  165.8427 Cl      1  UNL1       -0.0822
     28 C         143.0649  140.1855  166.4949 C.ar    1  UNL1        0.0111
     29 C         142.3931  138.9002  166.1120 C.ar    1  UNL1       -0.0034
@<TRIPOS>BOND
     1    14    15    1
     2    15    16    2
     3    15    17    2
     4    15    12    1
     5    12     6    1
     6     6     7   ar
     7     7     8   ar
     8     8     9   ar
     9     9     5    1
    10     5     4    1
    11     4     1    1
    12     1     2    1
    13     1    18    1
    14    18    19    1
    15    19    21    1
    16    21    22    1
    17    22    23    1
    18    23    24   ar
    19    24    25   ar
    20    25    26   ar
    21    26    27    1
    22    26    28   ar
    23    28    29   ar
    24     9    10   ar
    25    10    11   ar
    26    11     6   ar
    27    29    23   ar
    28    12    13    1
    29     2     3    1
    30    19    20    1
@<TRIPOS>MOLECULE
*****
 29 30 0 0 0
SMALL
GASTEIGER

@<TRIPOS>ATOM
      1 C         137.7990  141.0323  162.3501 C.3     1  UNL1        0.1697
      2 O         136.5828  141.2112  163.2096 O.3     1  UNL1       -0.3793
      3 H         136.2368  142.1104  163.0971 H       1  UNL1        0.2106
      4 C         138.5262  139.7204  162.3433 C.3     1  UNL1        0.2358
      5 O         138.3982  138.7859  163.5096 O.3     1  UNL1       -0.4728
      6 C         140.3057  139.8296  167.4494 C.ar    1  UNL1        0.0646
      7 C         141.1517  139.6992  166.2176 C.ar    1  UNL1        0.0190
      8 C         140.5159  139.3513  164.9044 C.ar    1  UNL1        0.0382
      9 C         139.0340  139.1338  164.8228 C.ar    1  UNL1        0.1388
     10 C         138.1880  139.2642  166.0545 C.ar    1  UNL1        0.0382
     11 C         138.8238  139.6121  167.3678 C.ar    1  UNL1        0.0190
     12 N         140.9415  140.1775  168.7626 N.pl3   1  UNL1       -0.2187
     13 H         140.6054  139.7729  169.5948 H       1  UNL1        0.1734
     14 C         143.2376  142.1063  168.8533 C.3     1  UNL1        0.1996
     15 S         142.0895  141.1419  168.8080 S.O2    1  UNL1        0.0558
     16 O         143.0394  140.0011  169.0228 O.2     1  UNL1       -0.1544
     17 O         141.1396  142.2827  168.5931 O.2     1  UNL1       -0.1544
     18 C         138.2880  142.1653  161.4973 C.3     1  UNL1        0.1021
     19 N         137.7842  143.5574  161.7387 N.3     1  UNL1       -0.2951
     20 H         136.7657  143.5112  161.7090 H       1  UNL1        0.1233
     21 C         138.1482  144.2781  163.0028 C.3     1  UNL1        0.0734
     22 C         139.3442  145.1830  163.0324 C.3     1  UNL1        0.0434
     23 C         140.6374  144.6978  163.6176 C.ar    1  UNL1       -0.0207
     24 C         140.6552  143.4766  164.4884 C.ar    1  UNL1       -0.0034
     25 C         141.9483  142.9915  165.0735 C.ar    1  UNL1        0.0111
     26 C         143.2237  143.7275  164.7877 C.ar    1  UNL1        0.0577
     27 CL        144.5169  143.2423  165.3728 Cl      1  UNL1       -0.0822
     28 C         143.2060  144.9486  163.9169 C.ar    1  UNL1        0.0111
     29 C         141.9128  145.4338  163.3318 C.ar    1  UNL1       -0.0034
@<TRIPOS>BOND
     1    14    15    1
     2    15    16    2
     3    15    17    2
     4    15    12    1
     5    12     6    1
     6     6     7   ar
     7     7     8   ar
     8     8     9   ar
     9     9     5    1
    10     5     4    1
    11     4     1    1
    12     1     2    1
    13     1    18    1
    14    18    19    1
    15    19    21    1
    16    21    22    1
    17    22    23    1
    18    23    24   ar
    19    24    25   ar
    20    25    26   ar
    21    26    27    1
    22    26    28   ar
    23    28    29   ar
    24     9    10   ar
    25    10    11   ar
    26    11     6   ar
    27    29    23   ar
    28    12    13    1
    29     2     3    1
    30    19    20    1
@<TRIPOS>MOLECULE
*****
 29 30 0 0 0
SMALL
GASTEIGER

@<TRIPOS>ATOM
      1 C         138.2993  142.7348  161.6258 C.3     1  UNL1        0.1697
      2 O         138.8854  143.9186  160.9150 O.3     1  UNL1       -0.3793
      3 H         139.1920  143.6483  160.0354 H       1  UNL1        0.2106
      4 C         137.7501  142.8893  163.0130 C.3     1  UNL1        0.2358
      5 O         137.4028  141.6747  163.8218 O.3     1  UNL1       -0.4728
      6 C         140.1344  140.3180  167.1305 C.ar    1  UNL1        0.0646
      7 C         140.2641  141.7039  166.5717 C.ar    1  UNL1        0.0190
      8 C         139.3535  142.1562  165.4688 C.ar    1  UNL1        0.0382
      9 C         138.3133  141.2225  164.9247 C.ar    1  UNL1        0.1388
     10 C         138.1836  139.8365  165.4835 C.ar    1  UNL1        0.0382
     11 C         139.0942  139.3843  166.5864 C.ar    1  UNL1        0.0190
     12 N         141.0449  139.8657  168.2334 N.pl3   1  UNL1       -0.2187
     13 H         141.7082  139.1580  168.0650 H       1  UNL1        0.1734
     14 C         140.8448  141.1180  170.9522 C.3     1  UNL1        0.1996
     15 S         140.9448  140.4918  169.5928 S.O2    1  UNL1        0.0558
     16 O         142.2430  141.2061  169.3593 O.2     1  UNL1       -0.1544
     17 O         139.6467  139.7776  169.8262 O.2     1  UNL1       -0.1544
     18 C         138.2624  141.3965  160.9493 C.3     1  UNL1        0.1021
     19 N         137.2572  140.3680  161.3757 N.3     1  UNL1       -0.2951
     20 H         136.6115  140.2463  160.5956 H       1  UNL1        0.1233
     21 C         137.7121  138.9969  161.7793 C.3     1  UNL1        0.0734
     22 C         139.1138  138.5537  161.4813 C.3     1  UNL1        0.0434
     23 C         140.1294  138.4865  162.5833 C.ar    1  UNL1       -0.0207
     24 C         140.9955  139.6750  162.8785 C.ar    1  UNL1       -0.0034
     25 C         142.0110  139.6077  163.9804 C.ar    1  UNL1        0.0111
     26 C         142.1604  138.3519  164.7870 C.ar    1  UNL1        0.0577
     27 CL        143.1759  138.2846  165.8890 Cl      1  UNL1       -0.0822
     28 C         141.2942  137.1634  164.4918 C.ar    1  UNL1        0.0111
     29 C         140.2788  137.2307  163.3899 C.ar    1  UNL1       -0.0034
@<TRIPOS>BOND
     1    14    15    1
     2    15    16    2
     3    15    17    2
     4    15    12    1
     5    12     6    1
     6     6     7   ar
     7     7     8   ar
     8     8     9   ar
     9     9     5    1
    10     5     4    1
    11     4     1    1
    12     1     2    1
    13     1    18    1
    14    18    19    1
    15    19    21    1
    16    21    22    1
    17    22    23    1
    18    23    24   ar
    19    24    25   ar
    20    25    26   ar
    21    26    27    1
    22    26    28   ar
    23    28    29   ar
    24     9    10   ar
    25    10    11   ar
    26    11     6   ar
    27    29    23   ar
    28    12    13    1
    29     2     3    1
    30    19    20    1
@<TRIPOS>MOLECULE
*****
 29 30 0 0 0
SMALL
GASTEIGER

@<TRIPOS>ATOM
      1 C         140.0652  145.3770  162.9608 C.3     1  UNL1        0.1697
      2 O         140.4963  146.6825  162.3608 O.3     1  UNL1       -0.3793
      3 H         139.7518  147.0801  161.8828 H       1  UNL1        0.2106
      4 C         141.0392  144.5591  163.7560 C.3     1  UNL1        0.2358
      5 O         141.0476  143.0650  163.6238 O.3     1  UNL1       -0.4728
      6 C         141.6250  140.4869  167.2665 C.ar    1  UNL1        0.0646
      7 C         142.4980  140.2906  166.0627 C.ar    1  UNL1        0.0190
      8 C         142.3055  141.1500  164.8484 C.ar    1  UNL1        0.0382
      9 C         141.2400  142.2057  164.8380 C.ar    1  UNL1        0.1388
     10 C         140.3670  142.4020  166.0418 C.ar    1  UNL1        0.0382
     11 C         140.5595  141.5426  167.2561 C.ar    1  UNL1        0.0190
     12 N         141.8174  139.6275  168.4808 N.pl3   1  UNL1       -0.2187
     13 H         141.9527  138.6575  168.3809 H       1  UNL1        0.1734
     14 C         141.7903  140.8647  171.2137 C.3     1  UNL1        0.1996
     15 S         141.8038  140.2461  169.8472 S.O2    1  UNL1        0.0558
     16 O         143.1206  140.9053  169.5619 O.2     1  UNL1       -0.1544
     17 O         140.4871  139.5868  170.1325 O.2     1  UNL1       -0.1544
     18 C         138.6601  144.8894  162.7654 C.3     1  UNL1        0.1021
     19 N         138.1719  143.6876  163.5185 N.3     1  UNL1       -0.2951
     20 H         137.4108  144.0053  164.1187 H       1  UNL1        0.1233
     21 C         137.6634  142.4902  162.7717 C.3     1  UNL1        0.0734
     22 C         137.2573  141.2558  163.5209 C.3     1  UNL1        0.0434
     23 C         138.2589  140.1680  163.7730 C.ar    1  UNL1       -0.0207
     24 C         139.2262  139.7748  162.6961 C.ar    1  UNL1       -0.0034
     25 C         140.2278  138.6871  162.9482 C.ar    1  UNL1        0.0111
     26 C         140.2620  137.9924  164.2772 C.ar    1  UNL1        0.0577
     27 CL        141.2637  136.9046  164.5293 Cl      1  UNL1       -0.0822
     28 C         139.2948  138.3855  165.3541 C.ar    1  UNL1        0.0111
     29 C         138.2932  139.4733  165.1020 C.ar    1  UNL1       -0.0034
@<TRIPOS>BOND
     1    14    15    1
     2    15    16    2
     3    15    17    2
     4    15    12    1
     5    12     6    1
     6     6     7   ar
     7     7     8   ar
     8     8     9   ar
     9     9     5    1
    10     5     4    1
    11     4     1    1
    12     1     2    1
    13     1    18    1
    14    18    19    1
    15    19    21    1
    16    21    22    1
    17    22    23    1
    18    23    24   ar
    19    24    25   ar
    20    25    26   ar
    21    26    27    1
    22    26    28   ar
    23    28    29   ar
    24     9    10   ar
    25    10    11   ar
    26    11     6   ar
    27    29    23   ar
    28    12    13    1
    29     2     3    1
    30    19    20    1
@<TRIPOS>MOLECULE
*****
 29 30 0 0 0
SMALL
GASTEIGER

@<TRIPOS>ATOM
      1 C         143.1390  144.5322  163.1357 C.3     1  UNL1        0.1697
      2 O         143.2948  144.6567  161.6490 O.3     1  UNL1       -0.3793
      3 H         142.6397  145.2849  161.3068 H       1  UNL1        0.2106
      4 C         144.0394  143.6158  163.9100 C.3     1  UNL1        0.2358
      5 O         143.7707  142.1402  163.9289 O.3     1  UNL1       -0.4728
      6 C         142.6984  140.0978  167.7926 C.ar    1  UNL1        0.0646
      7 C         142.8558  141.5889  167.7510 C.ar    1  UNL1        0.0190
      8 C         143.2132  142.2697  166.4631 C.ar    1  UNL1        0.0382
      9 C         143.4133  141.4594  165.2168 C.ar    1  UNL1        0.1388
     10 C         143.2559  139.9683  165.2584 C.ar    1  UNL1        0.0382
     11 C         142.8984  139.2875  166.5463 C.ar    1  UNL1        0.0190
     12 N         142.3409  139.4169  169.0806 N.pl3   1  UNL1       -0.2187
     13 H         142.7538  138.5537  169.3121 H       1  UNL1        0.1734
     14 C         140.3679  140.6857  170.9507 C.3     1  UNL1        0.1996
     15 S         141.3544  140.0513  170.0156 S.O2    1  UNL1        0.0558
     16 O         140.2405  139.7135  169.0696 O.2     1  UNL1       -0.1544
     17 O         142.4684  140.3891  170.9616 O.2     1  UNL1       -0.1544
     18 C         142.0829  145.3241  163.8481 C.3     1  UNL1        0.1021
     19 N         140.9648  145.9530  163.0707 N.3     1  UNL1       -0.2951
     20 H         141.3261  146.1417  162.1357 H       1  UNL1        0.1233
     21 C         139.6686  145.2191  162.8942 C.3     1  UNL1        0.0734
     22 C         138.8604  144.8248  164.0947 C.3     1  UNL1        0.0434
     23 C         138.7821  143.3843  164.5059 C.ar    1  UNL1       -0.0207
     24 C         139.6915  142.8596  165.5772 C.ar    1  UNL1       -0.0034
     25 C         139.6131  141.4192  165.9883 C.ar    1  UNL1        0.0111
     26 C         138.6254  140.5035  165.3282 C.ar    1  UNL1        0.0577
     27 CL        138.5471  139.0630  165.7394 Cl      1  UNL1       -0.0822
     28 C         137.7160  141.0282  164.2569 C.ar    1  UNL1        0.0111
     29 C         137.7944  142.4686  163.8458 C.ar    1  UNL1       -0.0034
@<TRIPOS>BOND
     1    14    15    1
     2    15    16    2
     3    15    17    2
     4    15    12    1
     5    12     6    1
     6     6     7   ar
     7     7     8   ar
     8     8     9   ar
     9     9     5    1
    10     5     4    1
    11     4     1    1
    12     1     2    1
    13     1    18    1
    14    18    19    1
    15    19    21    1
    16    21    22    1
    17    22    23    1
    18    23    24   ar
    19    24    25   ar
    20    25    26   ar
    21    26    27    1
    22    26    28   ar
    23    28    29   ar
    24     9    10   ar
    25    10    11   ar
    26    11     6   ar
    27    29    23   ar
    28    12    13    1
    29     2     3    1
    30    19    20    1
@<TRIPOS>MOLECULE
*****
 29 30 0 0 0
SMALL
GASTEIGER

@<TRIPOS>ATOM
      1 C         144.9651  141.9114  162.8292 C.3     1  UNL1        0.1697
      2 O         146.4268  141.9047  163.1659 O.3     1  UNL1       -0.3793
      3 H         146.8535  142.6802  162.7690 H       1  UNL1        0.2106
      4 C         144.0757  140.8112  163.3277 C.3     1  UNL1        0.2358
      5 O         142.5880  141.0019  163.3510 O.3     1  UNL1       -0.4728
      6 C         140.3631  140.8641  167.2601 C.ar    1  UNL1        0.0646
      7 C         141.6227  141.6700  167.1420 C.ar    1  UNL1        0.0190
      8 C         142.3643  141.7159  165.8390 C.ar    1  UNL1        0.0382
      9 C         141.8464  140.9560  164.6541 C.ar    1  UNL1        0.1388
     10 C         140.5868  140.1501  164.7721 C.ar    1  UNL1        0.0382
     11 C         139.8452  140.1042  166.0751 C.ar    1  UNL1        0.0190
     12 N         139.6214  140.8182  168.5631 N.pl3   1  UNL1       -0.2187
     13 H         138.6440  140.7003  168.5693 H       1  UNL1        0.1734
     14 C         141.1165  141.0855  171.1503 C.3     1  UNL1        0.1996
     15 S         140.3689  140.9519  169.8567 S.O2    1  UNL1        0.0558
     16 O         140.7876  139.5145  169.7632 O.2     1  UNL1       -0.1544
     17 O         139.9503  142.3892  169.9501 O.2     1  UNL1       -0.1544
     18 C         144.3928  143.0183  161.9942 C.3     1  UNL1        0.1021
     19 N         144.2859  144.4044  162.5575 N.3     1  UNL1       -0.2951
     20 H         143.8348  144.9779  161.8448 H       1  UNL1        0.1233
     21 C         143.5400  144.6382  163.8376 C.3     1  UNL1        0.0734
     22 C         142.1876  145.2865  163.8100 C.3     1  UNL1        0.0434
     23 C         140.9539  144.4429  163.6822 C.ar    1  UNL1       -0.0207
     24 C         139.9805  144.3605  164.8205 C.ar    1  UNL1       -0.0034
     25 C         138.7468  143.5169  164.6927 C.ar    1  UNL1        0.0111
     26 C         138.4866  142.7556  163.4267 C.ar    1  UNL1        0.0577
     27 CL        137.2529  141.9120  163.2989 Cl      1  UNL1       -0.0822
     28 C         139.4600  142.8380  162.2884 C.ar    1  UNL1        0.0111
     29 C         140.6936  143.6817  162.4162 C.ar    1  UNL1       -0.0034
@<TRIPOS>BOND
     1    14    15    1
     2    15    16    2
     3    15    17    2
     4    15    12    1
     5    12     6    1
     6     6     7   ar
     7     7     8   ar
     8     8     9   ar
     9     9     5    1
    10     5     4    1
    11     4     1    1
    12     1     2    1
    13     1    18    1
    14    18    19    1
    15    19    21    1
    16    21    22    1
    17    22    23    1
    18    23    24   ar
    19    24    25   ar
    20    25    26   ar
    21    26    27    1
    22    26    28   ar
    23    28    29   ar
    24     9    10   ar
    25    10    11   ar
    26    11     6   ar
    27    29    23   ar
    28    12    13    1
    29     2     3    1
    30    19    20    1
