@<TRIPOS>MOLECULE
*****
 19 20 0 0 0
SMALL
GASTEIGER

@<TRIPOS>ATOM
      1 P         140.7087  140.2357  166.0226 P.3     1  UNL1        0.3246
      2 O         140.7789  139.9233  164.5572 O.2     1  UNL1       -0.2661
      3 O         140.6385  140.5482  167.4880 O.3     1  UNL1       -0.2991
      4 C         139.2875  140.5290  169.7071 C.3     1  UNL1        0.0352
      5 C         139.5069  140.0143  168.3153 C.3     1  UNL1        0.1508
      6 S         139.2838  140.6752  165.8606 S.3     1  UNL1       -0.0215
      7 C         138.9712  141.9615  165.1550 C.ar    1  UNL1        0.0345
      8 C         137.9413  141.9879  164.0648 C.ar    1  UNL1        0.0066
      9 C         137.6288  143.2741  163.3593 C.ar    1  UNL1        0.0005
     10 C         138.3461  144.5341  163.7440 C.ar    1  UNL1        0.0000
     11 C         139.3760  144.5077  164.8342 C.ar    1  UNL1        0.0005
     12 C         139.6885  143.2215  165.5398 C.ar    1  UNL1        0.0066
     13 S         142.1337  139.7962  166.1846 S.3     1  UNL1       -0.0215
     14 C         143.2319  140.5381  165.4820 C.ar    1  UNL1        0.0345
     15 C         144.2318  139.7886  164.6523 C.ar    1  UNL1        0.0066
     16 C         145.3300  140.5305  163.9497 C.ar    1  UNL1        0.0005
     17 C         145.4282  142.0219  164.0769 C.ar    1  UNL1        0.0000
     18 C         144.4283  142.7713  164.9066 C.ar    1  UNL1        0.0005
     19 C         143.3302  142.0294  165.6092 C.ar    1  UNL1        0.0066
@<TRIPOS>BOND
     1     4     5    1
     2     5     3    1
     3     3     1    1
     4     1     2    2
     5     1     6    1
     6     6     7    1
     7     7     8   ar
     8     8     9   ar
     9     9    10   ar
    10    10    11   ar
    11    11    12   ar
    12     1    13    1
    13    13    14    1
    14    14    15   ar
    15    15    16   ar
    16    16    17   ar
    17    17    18   ar
    18    18    19   ar
    19    12     7   ar
    20    19    14   ar
@<TRIPOS>MOLECULE
*****
 19 20 0 0 0
SMALL
GASTEIGER

@<TRIPOS>ATOM
      1 P         140.6995  140.3546  166.0081 P.3     1  UNL1        0.3246
      2 O         140.7865  140.0104  164.5507 O.2     1  UNL1       -0.2661
      3 O         140.6125  140.6988  167.4654 O.3     1  UNL1       -0.2991
      4 C         139.2661  140.5961  169.6850 C.3     1  UNL1        0.0352
      5 C         139.5895  140.0292  168.3344 C.3     1  UNL1        0.1508
      6 S         142.1166  139.9018  166.1996 S.3     1  UNL1       -0.0215
      7 C         143.2323  140.6076  165.4874 C.ar    1  UNL1        0.0345
      8 C         143.3674  142.0976  165.5958 C.ar    1  UNL1        0.0066
      9 C         144.4830  142.8033  164.8836 C.ar    1  UNL1        0.0005
     10 C         145.4635  142.0191  164.0629 C.ar    1  UNL1        0.0000
     11 C         145.3285  140.5291  163.9545 C.ar    1  UNL1        0.0005
     12 C         144.2129  139.8234  164.6667 C.ar    1  UNL1        0.0066
     13 S         139.2823  140.8074  165.8165 S.3     1  UNL1       -0.0215
     14 C         138.9957  142.0858  165.0861 C.ar    1  UNL1        0.0345
     15 C         137.9419  142.1198  164.0190 C.ar    1  UNL1        0.0066
     16 C         137.6552  143.3982  163.2886 C.ar    1  UNL1        0.0005
     17 C         138.4223  144.6425  163.6252 C.ar    1  UNL1        0.0000
     18 C         139.4760  144.6085  164.6922 C.ar    1  UNL1        0.0005
     19 C         139.7627  143.3301  165.4227 C.ar    1  UNL1        0.0066
@<TRIPOS>BOND
     1     4     5    1
     2     5     3    1
     3     3     1    1
     4     1     2    2
     5     1     6    1
     6     6     7    1
     7     7     8   ar
     8     8     9   ar
     9     9    10   ar
    10    10    11   ar
    11    11    12   ar
    12     1    13    1
    13    13    14    1
    14    14    15   ar
    15    15    16   ar
    16    16    17   ar
    17    17    18   ar
    18    18    19   ar
    19    12     7   ar
    20    19    14   ar
@<TRIPOS>MOLECULE
*****
 19 20 0 0 0
SMALL
GASTEIGER

@<TRIPOS>ATOM
      1 P         141.2334  139.9728  165.0812 P.3     1  UNL1        0.3246
      2 O         142.3735  140.0920  164.1138 O.2     1  UNL1       -0.2661
      3 O         140.0933  139.8536  166.0486 O.3     1  UNL1       -0.2991
      4 C         137.8500  138.7336  166.7292 C.3     1  UNL1        0.0352
      5 C         139.1078  138.7311  165.9119 C.3     1  UNL1        0.1508
      6 S         142.1574  139.3669  166.0956 S.3     1  UNL1       -0.0215
      7 C         142.5038  140.1257  167.3424 C.ar    1  UNL1        0.0345
      8 C         142.4842  139.4322  168.6722 C.ar    1  UNL1        0.0066
      9 C         142.8305  140.1909  169.9189 C.ar    1  UNL1        0.0005
     10 C         143.1964  141.6432  169.8358 C.ar    1  UNL1        0.0000
     11 C         143.2160  142.3368  168.5059 C.ar    1  UNL1        0.0005
     12 C         142.8697  141.5780  167.2592 C.ar    1  UNL1        0.0066
     13 S         140.3092  140.5787  164.0668 S.3     1  UNL1       -0.0215
     14 C         139.7422  141.9489  164.2928 C.ar    1  UNL1        0.0345
     15 C         138.2571  142.1592  164.2695 C.ar    1  UNL1        0.0066
     16 C         137.6901  143.5294  164.4955 C.ar    1  UNL1        0.0005
     17 C         138.6081  144.6893  164.7447 C.ar    1  UNL1        0.0000
     18 C         140.0931  144.4789  164.7679 C.ar    1  UNL1        0.0005
     19 C         140.6601  143.1087  164.5420 C.ar    1  UNL1        0.0066
@<TRIPOS>BOND
     1     4     5    1
     2     5     3    1
     3     3     1    1
     4     1     2    2
     5     1     6    1
     6     6     7    1
     7     7     8   ar
     8     8     9   ar
     9     9    10   ar
    10    10    11   ar
    11    11    12   ar
    12     1    13    1
    13    13    14    1
    14    14    15   ar
    15    15    16   ar
    16    16    17   ar
    17    17    18   ar
    18    18    19   ar
    19    12     7   ar
    20    19    14   ar
@<TRIPOS>MOLECULE
*****
 19 20 0 0 0
SMALL
GASTEIGER

@<TRIPOS>ATOM
      1 P         140.8096  140.4729  165.5727 P.3     1  UNL1        0.3246
      2 O         142.2634  140.7187  165.2968 O.2     1  UNL1       -0.2661
      3 O         139.3559  140.2271  165.8487 O.3     1  UNL1       -0.2991
      4 C         137.7383  138.4438  166.8250 C.3     1  UNL1        0.0352
      5 C         138.8211  138.8257  165.8597 C.3     1  UNL1        0.1508
      6 S         140.4789  140.8391  164.1562 S.3     1  UNL1       -0.0215
      7 C         139.6539  142.0588  163.8699 C.ar    1  UNL1        0.0345
      8 C         138.5950  142.0157  162.8085 C.ar    1  UNL1        0.0066
      9 C         137.7701  143.2354  162.5222 C.ar    1  UNL1        0.0005
     10 C         138.0042  144.4980  163.2973 C.ar    1  UNL1        0.0000
     11 C         139.0631  144.5411  164.3588 C.ar    1  UNL1        0.0005
     12 C         139.8880  143.3214  164.6451 C.ar    1  UNL1        0.0066
     13 S         141.1404  140.1068  166.9893 S.3     1  UNL1       -0.0215
     14 C         140.6859  140.9856  168.1168 C.ar    1  UNL1        0.0345
     15 C         139.9262  140.3959  169.2680 C.ar    1  UNL1        0.0066
     16 C         139.4717  141.2747  170.3954 C.ar    1  UNL1        0.0005
     17 C         139.7769  142.7432  170.3716 C.ar    1  UNL1        0.0000
     18 C         140.5366  143.3328  169.2205 C.ar    1  UNL1        0.0005
     19 C         140.9911  142.4540  168.0930 C.ar    1  UNL1        0.0066
@<TRIPOS>BOND
     1     4     5    1
     2     5     3    1
     3     3     1    1
     4     1     2    2
     5     1     6    1
     6     6     7    1
     7     7     8   ar
     8     8     9   ar
     9     9    10   ar
    10    10    11   ar
    11    11    12   ar
    12     1    13    1
    13    13    14    1
    14    14    15   ar
    15    15    16   ar
    16    16    17   ar
    17    17    18   ar
    18    18    19   ar
    19    12     7   ar
    20    19    14   ar
@<TRIPOS>MOLECULE
*****
 19 20 0 0 0
SMALL
GASTEIGER

@<TRIPOS>ATOM
      1 P         140.8207  140.2474  166.1993 P.3     1  UNL1        0.3246
      2 O         140.8242  140.7615  167.6084 O.2     1  UNL1       -0.2661
      3 O         140.8173  139.7333  164.7902 O.3     1  UNL1       -0.2991
      4 C         141.0697  137.2829  163.9643 C.3     1  UNL1        0.0352
      5 C         140.2089  138.3977  164.4806 C.3     1  UNL1        0.1508
      6 S         142.2595  139.8480  166.3415 S.3     1  UNL1       -0.0215
      7 C         143.3171  140.5592  165.5503 C.ar    1  UNL1        0.0345
      8 C         143.4327  142.0528  165.6255 C.ar    1  UNL1        0.0066
      9 C         144.4902  142.7639  164.8344 C.ar    1  UNL1        0.0005
     10 C         145.4321  141.9814  163.9680 C.ar    1  UNL1        0.0000
     11 C         145.3165  140.4878  163.8928 C.ar    1  UNL1        0.0005
     12 C         144.2590  139.7767  164.6839 C.ar    1  UNL1        0.0066
     13 S         139.3819  140.6469  166.0571 S.3     1  UNL1       -0.0215
     14 C         139.0202  141.8922  165.3032 C.ar    1  UNL1        0.0345
     15 C         137.9626  141.8452  164.2405 C.ar    1  UNL1        0.0066
     16 C         137.6010  143.0906  163.4866 C.ar    1  UNL1        0.0005
     17 C         138.2970  144.3830  163.7955 C.ar    1  UNL1        0.0000
     18 C         139.3545  144.4300  164.8582 C.ar    1  UNL1        0.0005
     19 C         139.7162  143.1846  165.6121 C.ar    1  UNL1        0.0066
@<TRIPOS>BOND
     1     4     5    1
     2     5     3    1
     3     3     1    1
     4     1     2    2
     5     1     6    1
     6     6     7    1
     7     7     8   ar
     8     8     9   ar
     9     9    10   ar
    10    10    11   ar
    11    11    12   ar
    12     1    13    1
    13    13    14    1
    14    14    15   ar
    15    15    16   ar
    16    16    17   ar
    17    17    18   ar
    18    18    19   ar
    19    12     7   ar
    20    19    14   ar
@<TRIPOS>MOLECULE
*****
 19 20 0 0 0
SMALL
GASTEIGER

@<TRIPOS>ATOM
      1 P         141.8841  140.6027  164.8872 P.3     1  UNL1        0.3246
      2 O         141.1616  139.5000  164.1716 O.2     1  UNL1       -0.2661
      3 O         142.6065  141.7053  165.6029 O.3     1  UNL1       -0.2991
      4 C         144.4295  143.5364  165.3306 C.3     1  UNL1        0.0352
      5 C         143.9783  142.1164  165.1566 C.3     1  UNL1        0.1508
      6 S         141.4129  141.5822  163.8536 S.3     1  UNL1       -0.0215
      7 C         140.2389  142.4703  164.1420 C.ar    1  UNL1        0.0345
      8 C         138.8548  141.8937  164.1839 C.ar    1  UNL1        0.0066
      9 C         137.6808  142.7817  164.4722 C.ar    1  UNL1        0.0005
     10 C         137.8909  144.2463  164.7186 C.ar    1  UNL1        0.0000
     11 C         139.2750  144.8229  164.6767 C.ar    1  UNL1        0.0005
     12 C         140.4490  143.9349  164.3884 C.ar    1  UNL1        0.0066
     13 S         142.3553  139.6231  165.9209 S.3     1  UNL1       -0.0215
     14 C         141.8144  139.6891  167.3184 C.ar    1  UNL1        0.0345
     15 C         140.3891  140.0942  167.5526 C.ar    1  UNL1        0.0066
     16 C         139.8482  140.1602  168.9501 C.ar    1  UNL1        0.0005
     17 C         140.7325  139.8212  170.1135 C.ar    1  UNL1        0.0000
     18 C         142.1576  139.4162  169.8792 C.ar    1  UNL1        0.0005
     19 C         142.6985  139.3502  168.4817 C.ar    1  UNL1        0.0066
@<TRIPOS>BOND
     1     4     5    1
     2     5     3    1
     3     3     1    1
     4     1     2    2
     5     1     6    1
     6     6     7    1
     7     7     8   ar
     8     8     9   ar
     9     9    10   ar
    10    10    11   ar
    11    11    12   ar
    12     1    13    1
    13    13    14    1
    14    14    15   ar
    15    15    16   ar
    16    16    17   ar
    17    17    18   ar
    18    18    19   ar
    19    12     7   ar
    20    19    14   ar
@<TRIPOS>MOLECULE
*****
 19 20 0 0 0
SMALL
GASTEIGER

@<TRIPOS>ATOM
      1 P         140.7905  141.6201  165.5008 P.3     1  UNL1        0.3246
      2 O         141.1230  140.1583  165.4495 O.2     1  UNL1       -0.2661
      3 O         140.4579  143.0818  165.5520 O.3     1  UNL1       -0.2991
      4 C         138.6415  144.9361  165.4409 C.3     1  UNL1        0.0352
      5 C         139.1221  143.5645  165.0697 C.3     1  UNL1        0.1508
      6 S         141.2748  141.7797  164.0902 S.3     1  UNL1       -0.0215
      7 C         142.7461  141.7786  163.7976 C.ar    1  UNL1        0.0345
      8 C         143.2619  141.1282  162.5483 C.ar    1  UNL1        0.0066
      9 C         144.7331  141.1272  162.2559 C.ar    1  UNL1        0.0005
     10 C         145.6884  141.7765  163.2128 C.ar    1  UNL1        0.0000
     11 C         145.1726  142.4269  164.4621 C.ar    1  UNL1        0.0005
     12 C         143.7014  142.4280  164.7545 C.ar    1  UNL1        0.0066
     13 S         140.3061  141.4605  166.9115 S.3     1  UNL1       -0.0215
     14 C         141.0999  142.0360  168.0466 C.ar    1  UNL1        0.0345
     15 C         142.5418  141.6603  168.2198 C.ar    1  UNL1        0.0066
     16 C         143.3357  142.2358  169.3549 C.ar    1  UNL1        0.0005
     17 C         142.6876  143.1870  170.3170 C.ar    1  UNL1        0.0000
     18 C         141.2458  143.5626  170.1438 C.ar    1  UNL1        0.0005
     19 C         140.4520  142.9871  169.0086 C.ar    1  UNL1        0.0066
@<TRIPOS>BOND
     1     4     5    1
     2     5     3    1
     3     3     1    1
     4     1     2    2
     5     1     6    1
     6     6     7    1
     7     7     8   ar
     8     8     9   ar
     9     9    10   ar
    10    10    11   ar
    11    11    12   ar
    12     1    13    1
    13    13    14    1
    14    14    15   ar
    15    15    16   ar
    16    16    17   ar
    17    17    18   ar
    18    18    19   ar
    19    12     7   ar
    20    19    14   ar
@<TRIPOS>MOLECULE
*****
 19 20 0 0 0
SMALL
GASTEIGER

@<TRIPOS>ATOM
      1 P         141.5265  140.9292  165.4771 P.3     1  UNL1        0.3246
      2 O         142.8349  141.6597  165.4111 O.2     1  UNL1       -0.2661
      3 O         140.2181  140.1987  165.5432 O.3     1  UNL1       -0.2991
      4 C         138.9057  138.0996  164.7546 C.3     1  UNL1        0.0352
      5 C         140.1677  138.7243  165.2716 C.3     1  UNL1        0.1508
      6 S         141.8535  140.4690  166.8668 S.3     1  UNL1       -0.0215
      7 C         141.1308  141.0586  168.0417 C.ar    1  UNL1        0.0345
      8 C         140.4221  140.1621  169.0132 C.ar    1  UNL1        0.0066
      9 C         139.6995  140.7517  170.1880 C.ar    1  UNL1        0.0005
     10 C         139.6856  142.2378  170.3912 C.ar    1  UNL1        0.0000
     11 C         140.3944  143.1343  169.4197 C.ar    1  UNL1        0.0005
     12 C         141.1170  142.5447  168.2449 C.ar    1  UNL1        0.0066
     13 S         141.1993  141.3893  164.0874 S.3     1  UNL1       -0.0215
     14 C         140.0565  142.3338  163.8596 C.ar    1  UNL1        0.0345
     15 C         139.8958  143.5416  164.7346 C.ar    1  UNL1        0.0066
     16 C         138.7529  144.4860  164.5068 C.ar    1  UNL1        0.0005
     17 C         137.7707  144.2226  163.4040 C.ar    1  UNL1        0.0000
     18 C         137.9314  143.0149  162.5291 C.ar    1  UNL1        0.0005
     19 C         139.0743  142.0705  162.7569 C.ar    1  UNL1        0.0066
@<TRIPOS>BOND
     1     4     5    1
     2     5     3    1
     3     3     1    1
     4     1     2    2
     5     1     6    1
     6     6     7    1
     7     7     8   ar
     8     8     9   ar
     9     9    10   ar
    10    10    11   ar
    11    11    12   ar
    12     1    13    1
    13    13    14    1
    14    14    15   ar
    15    15    16   ar
    16    16    17   ar
    17    17    18   ar
    18    18    19   ar
    19    12     7   ar
    20    19    14   ar
@<TRIPOS>MOLECULE
*****
 19 20 0 0 0
SMALL
GASTEIGER

@<TRIPOS>ATOM
      1 P         139.1131  139.4510  163.7154 P.3     1  UNL1        0.3246
      2 O         139.7352  140.4076  162.7418 O.2     1  UNL1       -0.2661
      3 O         138.4911  138.4943  164.6889 O.3     1  UNL1       -0.2991
      4 C         137.4859  138.0861  167.0496 C.3     1  UNL1        0.0352
      5 C         138.3967  138.8576  166.1412 C.3     1  UNL1        0.1508
      6 S         138.0214  140.4418  163.9915 S.3     1  UNL1       -0.0215
      7 C         138.3652  141.8646  164.3197 C.ar    1  UNL1        0.0345
      8 C         137.6960  142.9869  163.5833 C.ar    1  UNL1        0.0066
      9 C         138.0398  144.4096  163.9115 C.ar    1  UNL1        0.0005
     10 C         139.0529  144.7099  164.9762 C.ar    1  UNL1        0.0000
     11 C         139.7221  143.5875  165.7126 C.ar    1  UNL1        0.0005
     12 C         139.3783  142.1649  165.3844 C.ar    1  UNL1        0.0066
     13 S         140.2049  138.4600  163.4392 S.3     1  UNL1       -0.0215
     14 C         141.6205  138.7783  163.8199 C.ar    1  UNL1        0.0345
     15 C         142.7170  138.6505  162.8043 C.ar    1  UNL1        0.0066
     16 C         144.1326  138.9688  163.1849 C.ar    1  UNL1        0.0005
     17 C         144.4516  139.4147  164.5812 C.ar    1  UNL1        0.0000
     18 C         143.3551  139.5425  165.5967 C.ar    1  UNL1        0.0005
     19 C         141.9395  139.2242  165.2160 C.ar    1  UNL1        0.0066
@<TRIPOS>BOND
     1     4     5    1
     2     5     3    1
     3     3     1    1
     4     1     2    2
     5     1     6    1
     6     6     7    1
     7     7     8   ar
     8     8     9   ar
     9     9    10   ar
    10    10    11   ar
    11    11    12   ar
    12     1    13    1
    13    13    14    1
    14    14    15   ar
    15    15    16   ar
    16    16    17   ar
    17    17    18   ar
    18    18    19   ar
    19    12     7   ar
    20    19    14   ar
