@<TRIPOS>MOLECULE
*****
 32 36 0 0 0
SMALL
GASTEIGER

@<TRIPOS>ATOM
      1 N         139.8798  138.3422  163.1268 N.3     1  UNL1       -0.2703
      2 C         139.1462  139.0983  164.1945 C.3     1  UNL1        0.0727
      3 C         139.8295  139.4187  165.4907 C.3     1  UNL1        0.0260
      4 C         141.2466  138.9830  165.7193 C.3     1  UNL1        0.0737
      5 C         141.9802  138.2269  164.6516 C.3     1  UNL1        0.0260
      6 C         141.2968  137.9065  163.3553 C.3     1  UNL1        0.0727
      7 C         142.6528  138.6146  166.0892 C.3     1  UNL1        0.0306
      8 C         142.9190  139.1320  167.4719 C.3     1  UNL1        0.0992
      9 N         141.6773  139.8201  167.9564 N.am    1  UNL1       -0.2516
     10 C         140.6437  139.7280  166.8733 C.2     1  UNL1        0.2289
     11 O         139.2516  140.2834  166.9334 O.2     1  UNL1       -0.2745
     12 C         141.5003  140.4837  169.2898 C.ar    1  UNL1        0.1141
     13 S         140.5019  140.0984  170.3408 S.2     1  UNL1        0.0292
     14 N         140.6751  141.0257  171.5070 N.ar    1  UNL1       -0.2055
     15 C         141.7807  141.9843  171.1768 C.ar    1  UNL1        0.1205
     16 C         142.2906  141.6492  169.8064 C.ar    1  UNL1        0.0986
     17 CL        143.3967  142.3557  169.0803 Cl      1  UNL1       -0.0787
     18 C         139.1965  138.0218  161.8304 C.3     1  UNL1        0.1063
     19 C         139.3682  138.9285  160.6479 C.3     1  UNL1        0.1483
     20 O         139.4677  138.3501  159.2675 O.3     1  UNL1       -0.3786
     21 H         139.5750  139.0674  158.6234 H       1  UNL1        0.2108
     22 C         142.0267  140.3182  160.6191 C.3     1  UNL1        0.0306
     23 C         140.7696  141.1085  160.8314 C.ar    1  UNL1       -0.0238
     24 C         139.4403  140.4137  160.8458 C.ar    1  UNL1        0.0015
     25 C         138.1832  141.2040  161.0581 C.ar    1  UNL1       -0.0020
     26 C         138.2553  142.6891  161.2560 C.ar    1  UNL1        0.0060
     27 C         139.5846  143.3839  161.2416 C.ar    1  UNL1        0.0748
     28 C         140.8417  142.5936  161.0293 C.ar    1  UNL1        0.0233
     29 C         141.9997  143.5464  161.0644 C.3     1  UNL1        0.2352
     30 O         141.4583  144.9256  161.2984 O.3     1  UNL1       -0.4404
     31 C         139.9656  144.8251  161.4079 C.2     1  UNL1        0.3413
     32 O         139.0200  145.9656  161.6426 O.2     1  UNL1       -0.2449
@<TRIPOS>BOND
     1    22    23    1
     2    23    24   ar
     3    24    19    1
     4    19    20    1
     5    19    18    1
     6    18     1    1
     7     1     2    1
     8     2     3    1
     9     3     4    1
    10     4     5    1
    11     5     6    1
    12     4     7    1
    13     7     8    1
    14     8     9    1
    15     9    12    1
    16    12    13   ar
    17    13    14   ar
    18    14    15   ar
    19    15    16   ar
    20    16    17    1
    21     9    10   am
    22    10    11    2
    23    24    25   ar
    24    25    26   ar
    25    26    27   ar
    26    27    28   ar
    27    28    29    1
    28    29    30    1
    29    30    31    1
    30    31    32    2
    31    28    23   ar
    32     6     1    1
    33    16    12   ar
    34    31    27    1
    35    10     4    1
    36    20    21    1
@<TRIPOS>MOLECULE
*****
 32 36 0 0 0
SMALL
GASTEIGER

@<TRIPOS>ATOM
      1 N         139.3898  138.5571  163.3615 N.3     1  UNL1       -0.2703
      2 C         138.7058  139.1852  164.5394 C.3     1  UNL1        0.0727
      3 C         139.4869  139.4977  165.7813 C.3     1  UNL1        0.0260
      4 C         140.9519  139.1821  165.8452 C.3     1  UNL1        0.0737
      5 C         141.6359  138.5540  164.6672 C.3     1  UNL1        0.0260
      6 C         140.8548  138.2415  163.4253 C.3     1  UNL1        0.0727
      7 C         142.4148  138.9249  166.0547 C.3     1  UNL1        0.0306
      8 C         142.7743  139.3905  167.4347 C.3     1  UNL1        0.0992
      9 N         141.5335  139.9354  168.0779 N.am    1  UNL1       -0.2516
     10 C         140.4073  139.8066  167.0956 C.2     1  UNL1        0.2289
     11 O         138.9860  140.2282  167.3235 O.2     1  UNL1       -0.2745
     12 C         141.4362  140.5085  169.4606 C.ar    1  UNL1        0.1141
     13 S         140.4809  140.0709  170.5311 S.2     1  UNL1        0.0292
     14 N         140.7313  140.9117  171.7478 N.ar    1  UNL1       -0.2055
     15 C         141.8413  141.8690  171.4293 C.ar    1  UNL1        0.1205
     16 C         142.2769  141.6197  170.0157 C.ar    1  UNL1        0.0986
     17 CL        143.3627  142.3530  169.2855 Cl      1  UNL1       -0.0787
     18 C         138.6087  138.2446  162.1195 C.3     1  UNL1        0.1063
     19 C         137.9790  139.3540  161.3305 C.3     1  UNL1        0.1483
     20 O         136.6068  139.1771  160.7510 O.3     1  UNL1       -0.3786
     21 H         136.3507  139.9823  160.2746 H       1  UNL1        0.2108
     22 C         137.3497  141.7433  163.0322 C.3     1  UNL1        0.0306
     23 C         138.4067  141.8351  161.9719 C.ar    1  UNL1       -0.0238
     24 C         138.7214  140.6406  161.1211 C.ar    1  UNL1        0.0015
     25 C         139.7784  140.7324  160.0608 C.ar    1  UNL1       -0.0020
     26 C         140.5208  142.0188  159.8513 C.ar    1  UNL1        0.0060
     27 C         140.2062  143.2134  160.7022 C.ar    1  UNL1        0.0748
     28 C         139.1491  143.1215  161.7625 C.ar    1  UNL1        0.0233
     29 C         139.0574  144.4555  162.4423 C.3     1  UNL1        0.2352
     30 O         140.0577  145.3718  161.8022 O.3     1  UNL1       -0.4404
     31 C         140.7677  144.6041  160.7267 C.2     1  UNL1        0.3413
     32 O         141.8493  145.1341  159.8327 O.2     1  UNL1       -0.2449
@<TRIPOS>BOND
     1    22    23    1
     2    23    24   ar
     3    24    19    1
     4    19    20    1
     5    19    18    1
     6    18     1    1
     7     1     2    1
     8     2     3    1
     9     3     4    1
    10     4     5    1
    11     5     6    1
    12     4     7    1
    13     7     8    1
    14     8     9    1
    15     9    12    1
    16    12    13   ar
    17    13    14   ar
    18    14    15   ar
    19    15    16   ar
    20    16    17    1
    21     9    10   am
    22    10    11    2
    23    24    25   ar
    24    25    26   ar
    25    26    27   ar
    26    27    28   ar
    27    28    29    1
    28    29    30    1
    29    30    31    1
    30    31    32    2
    31    28    23   ar
    32     6     1    1
    33    16    12   ar
    34    31    27    1
    35    10     4    1
    36    20    21    1
@<TRIPOS>MOLECULE
*****
 32 36 0 0 0
SMALL
GASTEIGER

@<TRIPOS>ATOM
      1 N         138.7695  141.2769  163.8955 N.3     1  UNL1       -0.2703
      2 C         139.2360  140.9830  162.5006 C.3     1  UNL1        0.0727
      3 C         139.6387  142.1065  161.5921 C.3     1  UNL1        0.0260
      4 C         139.5749  143.5240  162.0785 C.3     1  UNL1        0.0737
      5 C         139.1084  143.8180  163.4734 C.3     1  UNL1        0.0260
      6 C         138.7057  142.6944  164.3820 C.3     1  UNL1        0.0727
      7 C         139.5639  144.9838  162.4232 C.3     1  UNL1        0.0306
      8 C         140.0416  145.7471  161.2234 C.3     1  UNL1        0.0992
      9 N         140.3478  144.7589  160.1372 N.am    1  UNL1       -0.2516
     10 C         140.0594  143.3850  160.6656 C.2     1  UNL1        0.2289
     11 O         140.2261  142.0981  159.9134 O.2     1  UNL1       -0.2745
     12 C         140.8535  145.0870  158.7638 C.ar    1  UNL1        0.1141
     13 S         140.1960  146.0075  157.7787 S.2     1  UNL1        0.0292
     14 N         141.0418  146.0417  156.5403 N.ar    1  UNL1       -0.2055
     15 C         142.2220  145.1423  156.7600 C.ar    1  UNL1        0.1205
     16 C         142.1056  144.5523  158.1342 C.ar    1  UNL1        0.0986
     17 CL        143.0717  143.5956  158.7676 Cl      1  UNL1       -0.0787
     18 C         138.3668  140.1534  164.8041 C.3     1  UNL1        0.1063
     19 C         139.3902  139.4934  165.6799 C.3     1  UNL1        0.1483
     20 O         140.0500  138.2218  165.2352 O.3     1  UNL1       -0.3786
     21 H         140.6805  137.9307  165.9124 H       1  UNL1        0.2108
     22 C         141.7936  141.2759  165.8964 C.3     1  UNL1        0.0306
     23 C         140.9556  140.9962  167.1086 C.ar    1  UNL1       -0.0238
     24 C         139.7539  140.1050  167.0004 C.ar    1  UNL1        0.0015
     25 C         138.9159  139.8254  168.2127 C.ar    1  UNL1       -0.0020
     26 C         139.2796  140.4369  169.5331 C.ar    1  UNL1        0.0060
     27 C         140.4812  141.3281  169.6414 C.ar    1  UNL1        0.0748
     28 C         141.3192  141.6078  168.4291 C.ar    1  UNL1        0.0233
     29 C         142.4377  142.5194  168.8390 C.3     1  UNL1        0.2352
     30 O         142.2910  142.8032  170.3046 O.3     1  UNL1       -0.4404
     31 C         141.0818  142.0669  170.8005 C.2     1  UNL1        0.3413
     32 O         140.5641  142.0691  172.2083 O.2     1  UNL1       -0.2449
@<TRIPOS>BOND
     1    22    23    1
     2    23    24   ar
     3    24    19    1
     4    19    20    1
     5    19    18    1
     6    18     1    1
     7     1     2    1
     8     2     3    1
     9     3     4    1
    10     4     5    1
    11     5     6    1
    12     4     7    1
    13     7     8    1
    14     8     9    1
    15     9    12    1
    16    12    13   ar
    17    13    14   ar
    18    14    15   ar
    19    15    16   ar
    20    16    17    1
    21     9    10   am
    22    10    11    2
    23    24    25   ar
    24    25    26   ar
    25    26    27   ar
    26    27    28   ar
    27    28    29    1
    28    29    30    1
    29    30    31    1
    30    31    32    2
    31    28    23   ar
    32     6     1    1
    33    16    12   ar
    34    31    27    1
    35    10     4    1
    36    20    21    1
@<TRIPOS>MOLECULE
*****
 32 36 0 0 0
SMALL
GASTEIGER

@<TRIPOS>ATOM
      1 N         141.3323  138.1115  163.1945 N.3     1  UNL1       -0.2703
      2 C         142.1922  138.7658  164.2349 C.3     1  UNL1        0.0727
      3 C         141.5854  139.2297  165.5258 C.3     1  UNL1        0.0260
      4 C         140.1188  139.0394  165.7764 C.3     1  UNL1        0.0737
      5 C         139.2589  138.3852  164.7359 C.3     1  UNL1        0.0260
      6 C         139.8657  137.9212  163.4450 C.3     1  UNL1        0.0727
      7 C         138.6754  138.9176  166.1662 C.3     1  UNL1        0.0306
      8 C         138.5134  139.5096  167.5350 C.3     1  UNL1        0.0992
      9 N         139.8567  139.9972  167.9911 N.am    1  UNL1       -0.2516
     10 C         140.8488  139.7066  166.9042 C.2     1  UNL1        0.2289
     11 O         142.3138  140.0270  166.9390 O.2     1  UNL1       -0.2745
     12 C         140.1553  140.6591  169.3035 C.ar    1  UNL1        0.1141
     13 S         140.2532  139.9741  170.6343 S.2     1  UNL1        0.0292
     14 N         140.5669  141.0139  171.6689 N.ar    1  UNL1       -0.2055
     15 C         140.6630  142.3416  170.9775 C.ar    1  UNL1        0.1205
     16 C         140.4086  142.1223  169.5155 C.ar    1  UNL1        0.0986
     17 CL        140.4077  143.1804  168.4524 Cl      1  UNL1       -0.0787
     18 C         141.9391  137.6475  161.9035 C.3     1  UNL1        0.1063
     19 C         142.1017  138.6083  160.7632 C.3     1  UNL1        0.1483
     20 O         142.4348  138.0967  159.3930 O.3     1  UNL1       -0.3786
     21 H         142.5038  138.8430  158.7772 H       1  UNL1        0.2108
     22 C         144.4331  140.2647  161.6694 C.3     1  UNL1        0.0306
     23 C         143.0971  140.9090  161.4461 C.ar    1  UNL1       -0.0238
     24 C         141.9314  140.0809  160.9930 C.ar    1  UNL1        0.0015
     25 C         140.5953  140.7251  160.7697 C.ar    1  UNL1       -0.0020
     26 C         140.4249  142.1976  160.9996 C.ar    1  UNL1        0.0060
     27 C         141.5906  143.0257  161.4526 C.ar    1  UNL1        0.0748
     28 C         142.9267  142.3814  161.6759 C.ar    1  UNL1        0.0233
     29 C         143.8860  143.4456  162.1199 C.3     1  UNL1        0.2352
     30 O         143.1429  144.7476  162.1710 O.3     1  UNL1       -0.4404
     31 C         141.7243  144.4881  161.7586 C.2     1  UNL1        0.3413
     32 O         140.6312  145.5113  161.6681 O.2     1  UNL1       -0.2449
@<TRIPOS>BOND
     1    22    23    1
     2    23    24   ar
     3    24    19    1
     4    19    20    1
     5    19    18    1
     6    18     1    1
     7     1     2    1
     8     2     3    1
     9     3     4    1
    10     4     5    1
    11     5     6    1
    12     4     7    1
    13     7     8    1
    14     8     9    1
    15     9    12    1
    16    12    13   ar
    17    13    14   ar
    18    14    15   ar
    19    15    16   ar
    20    16    17    1
    21     9    10   am
    22    10    11    2
    23    24    25   ar
    24    25    26   ar
    25    26    27   ar
    26    27    28   ar
    27    28    29    1
    28    29    30    1
    29    30    31    1
    30    31    32    2
    31    28    23   ar
    32     6     1    1
    33    16    12   ar
    34    31    27    1
    35    10     4    1
    36    20    21    1
@<TRIPOS>MOLECULE
*****
 32 36 0 0 0
SMALL
GASTEIGER

@<TRIPOS>ATOM
      1 N         140.5616  138.4065  163.1303 N.3     1  UNL1       -0.2703
      2 C         141.5723  139.0293  164.0472 C.3     1  UNL1        0.0727
      3 C         141.1815  139.4146  165.4431 C.3     1  UNL1        0.0260
      4 C         139.7800  139.1773  165.9222 C.3     1  UNL1        0.0737
      5 C         138.7693  138.5546  165.0053 C.3     1  UNL1        0.0260
      6 C         139.1601  138.1692  163.6094 C.3     1  UNL1        0.0727
      7 C         138.4236  139.0021  166.5382 C.3     1  UNL1        0.0306
      8 C         138.4822  139.5221  167.9441 C.3     1  UNL1        0.0992
      9 N         139.8750  140.0187  168.1969 N.am    1  UNL1       -0.2516
     10 C         140.6770  139.8056  166.9473 C.2     1  UNL1        0.2289
     11 O         142.1222  140.1587  166.7563 O.2     1  UNL1       -0.2745
     12 C         140.3774  140.6223  169.4747 C.ar    1  UNL1        0.1141
     13 S         139.8076  141.8259  170.1650 S.2     1  UNL1        0.0292
     14 N         140.6158  142.0759  171.4037 N.ar    1  UNL1       -0.2055
     15 C         141.6852  141.0267  171.4790 C.ar    1  UNL1        0.1205
     16 C         141.5378  140.1283  170.2867 C.ar    1  UNL1        0.0986
     17 CL        142.3995  138.9440  169.9634 Cl      1  UNL1       -0.0787
     18 C         140.9524  138.0211  161.7343 C.3     1  UNL1        0.1063
     19 C         140.8352  139.0186  160.6202 C.3     1  UNL1        0.1483
     20 O         141.0696  138.5900  159.2020 O.3     1  UNL1       -0.3786
     21 H         140.9550  139.3508  158.6112 H       1  UNL1        0.2108
     22 C         143.0083  141.0259  161.1190 C.3     1  UNL1        0.0306
     23 C         141.5700  141.4484  161.1737 C.ar    1  UNL1       -0.0238
     24 C         140.4835  140.4448  160.9243 C.ar    1  UNL1        0.0015
     25 C         139.0453  140.8673  160.9790 C.ar    1  UNL1       -0.0020
     26 C         138.6936  142.2934  161.2831 C.ar    1  UNL1        0.0060
     27 C         139.7801  143.2970  161.5325 C.ar    1  UNL1        0.0748
     28 C         141.2183  142.8745  161.4778 C.ar    1  UNL1        0.0233
     29 C         142.0663  144.0781  161.7648 C.3     1  UNL1        0.2352
     30 O         141.1521  145.2445  161.9969 O.3     1  UNL1       -0.4404
     31 C         139.7392  144.7617  161.8533 C.2     1  UNL1        0.3413
     32 O         138.5025  145.5970  162.0041 O.2     1  UNL1       -0.2449
@<TRIPOS>BOND
     1    22    23    1
     2    23    24   ar
     3    24    19    1
     4    19    20    1
     5    19    18    1
     6    18     1    1
     7     1     2    1
     8     2     3    1
     9     3     4    1
    10     4     5    1
    11     5     6    1
    12     4     7    1
    13     7     8    1
    14     8     9    1
    15     9    12    1
    16    12    13   ar
    17    13    14   ar
    18    14    15   ar
    19    15    16   ar
    20    16    17    1
    21     9    10   am
    22    10    11    2
    23    24    25   ar
    24    25    26   ar
    25    26    27   ar
    26    27    28   ar
    27    28    29    1
    28    29    30    1
    29    30    31    1
    30    31    32    2
    31    28    23   ar
    32     6     1    1
    33    16    12   ar
    34    31    27    1
    35    10     4    1
    36    20    21    1
@<TRIPOS>MOLECULE
*****
 32 36 0 0 0
SMALL
GASTEIGER

@<TRIPOS>ATOM
      1 N         139.7833  137.7663  164.0982 N.3     1  UNL1       -0.2703
      2 C         139.1857  137.8385  162.7243 C.3     1  UNL1        0.0727
      3 C         140.0726  138.0282  161.5297 C.3     1  UNL1        0.0260
      4 C         141.5573  138.1457  161.7089 C.3     1  UNL1        0.0737
      5 C         142.1549  138.0735  163.0828 C.3     1  UNL1        0.0260
      6 C         141.2679  137.8837  164.2774 C.3     1  UNL1        0.0727
      7 C         143.0512  138.2783  161.7322 C.3     1  UNL1        0.0306
      8 C         143.5233  138.4507  160.3188 C.3     1  UNL1        0.0992
      9 N         142.3211  138.4246  159.4221 N.am    1  UNL1       -0.2516
     10 C         141.1061  138.2361  160.2812 C.2     1  UNL1        0.2289
     11 O         139.6886  138.1526  159.7976 O.2     1  UNL1       -0.2745
     12 C         142.3321  138.5627  157.9286 C.ar    1  UNL1        0.1141
     13 S         142.7758  137.5165  156.9496 S.2     1  UNL1        0.0292
     14 N         142.6192  138.0785  155.5677 N.ar    1  UNL1       -0.2055
     15 C         142.0786  139.4721  155.6925 C.ar    1  UNL1        0.1205
     16 C         141.9012  139.7713  157.1517 C.ar    1  UNL1        0.0986
     17 CL        141.3837  141.0541  157.7320 Cl      1  UNL1       -0.0787
     18 C         138.8963  137.5765  165.2929 C.3     1  UNL1        0.1063
     19 C         138.1673  138.7489  165.8795 C.3     1  UNL1        0.1483
     20 O         137.3017  138.5642  167.0906 O.3     1  UNL1       -0.3786
     21 H         136.9065  139.4148  167.3383 H       1  UNL1        0.2108
     22 C         140.1260  140.7256  167.0002 C.3     1  UNL1        0.0306
     23 C         139.2832  141.0942  165.8154 C.ar    1  UNL1       -0.0238
     24 C         138.3038  140.1059  165.2551 C.ar    1  UNL1        0.0015
     25 C         137.4610  140.4745  164.0703 C.ar    1  UNL1       -0.0020
     26 C         137.5976  141.8315  163.4458 C.ar    1  UNL1        0.0060
     27 C         138.5769  142.8198  164.0062 C.ar    1  UNL1        0.0748
     28 C         139.4197  142.4512  165.1910 C.ar    1  UNL1        0.0233
     29 C         140.2929  143.6251  165.5219 C.3     1  UNL1        0.2352
     30 O         139.9898  144.7192  164.5416 O.3     1  UNL1       -0.4404
     31 C         138.9292  144.2215  163.6049 C.2     1  UNL1        0.3413
     32 O         138.3267  144.9905  162.4666 O.2     1  UNL1       -0.2449
@<TRIPOS>BOND
     1    22    23    1
     2    23    24   ar
     3    24    19    1
     4    19    20    1
     5    19    18    1
     6    18     1    1
     7     1     2    1
     8     2     3    1
     9     3     4    1
    10     4     5    1
    11     5     6    1
    12     4     7    1
    13     7     8    1
    14     8     9    1
    15     9    12    1
    16    12    13   ar
    17    13    14   ar
    18    14    15   ar
    19    15    16   ar
    20    16    17    1
    21     9    10   am
    22    10    11    2
    23    24    25   ar
    24    25    26   ar
    25    26    27   ar
    26    27    28   ar
    27    28    29    1
    28    29    30    1
    29    30    31    1
    30    31    32    2
    31    28    23   ar
    32     6     1    1
    33    16    12   ar
    34    31    27    1
    35    10     4    1
    36    20    21    1
@<TRIPOS>MOLECULE
*****
 32 36 0 0 0
SMALL
GASTEIGER

@<TRIPOS>ATOM
      1 N         139.7518  143.5541  162.7196 N.3     1  UNL1       -0.2703
      2 C         140.4525  143.7705  164.0281 C.3     1  UNL1        0.0727
      3 C         140.2502  142.8030  165.1562 C.3     1  UNL1        0.0260
      4 C         139.3470  141.6190  164.9760 C.3     1  UNL1        0.0737
      5 C         138.6462  141.4026  163.6676 C.3     1  UNL1        0.0260
      6 C         138.8486  142.3702  162.5394 C.3     1  UNL1        0.0727
      7 C         138.4788  140.3962  164.9438 C.3     1  UNL1        0.0306
      8 C         138.5725  139.7258  166.2824 C.3     1  UNL1        0.0992
      9 N         139.4986  140.5343  167.1419 N.am    1  UNL1       -0.2516
     10 C         139.9772  141.7043  166.3345 C.2     1  UNL1        0.2289
     11 O         140.9205  142.7722  166.8033 O.2     1  UNL1       -0.2745
     12 C         139.8792  140.2268  168.5598 C.ar    1  UNL1        0.1141
     13 S         138.9553  140.2315  169.7415 S.2     1  UNL1        0.0292
     14 N         139.7556  139.8681  170.9570 N.ar    1  UNL1       -0.2055
     15 C         141.1741  139.6388  170.5266 C.ar    1  UNL1        0.1205
     16 C         141.2504  139.8605  169.0450 C.ar    1  UNL1        0.0986
     17 CL        142.4818  139.7374  168.1974 Cl      1  UNL1       -0.0787
     18 C         139.9541  144.5217  161.5914 C.3     1  UNL1        0.1063
     19 C         141.1245  144.3618  160.6670 C.3     1  UNL1        0.1483
     20 O         141.8013  145.5731  160.0973 O.3     1  UNL1       -0.3786
     21 H         142.5330  145.2952  159.5243 H       1  UNL1        0.2108
     22 C         143.3836  143.1343  162.2130 C.3     1  UNL1        0.0306
     23 C         142.7477  142.3767  161.0853 C.ar    1  UNL1       -0.0238
     24 C         141.6182  142.9904  160.3123 C.ar    1  UNL1        0.0015
     25 C         140.9824  142.2328  159.1846 C.ar    1  UNL1       -0.0020
     26 C         141.4760  140.8615  158.8299 C.ar    1  UNL1        0.0060
     27 C         142.6055  140.2479  159.6029 C.ar    1  UNL1        0.0748
     28 C         143.2414  141.0054  160.7306 C.ar    1  UNL1        0.0233
     29 C         144.3291  140.1495  161.3087 C.3     1  UNL1        0.2352
     30 O         144.3655  138.8630  160.5384 O.3     1  UNL1       -0.4404
     31 C         143.3003  138.9238  159.4841 C.2     1  UNL1        0.3413
     32 O         142.9851  137.8491  158.4862 O.2     1  UNL1       -0.2449
@<TRIPOS>BOND
     1    22    23    1
     2    23    24   ar
     3    24    19    1
     4    19    20    1
     5    19    18    1
     6    18     1    1
     7     1     2    1
     8     2     3    1
     9     3     4    1
    10     4     5    1
    11     5     6    1
    12     4     7    1
    13     7     8    1
    14     8     9    1
    15     9    12    1
    16    12    13   ar
    17    13    14   ar
    18    14    15   ar
    19    15    16   ar
    20    16    17    1
    21     9    10   am
    22    10    11    2
    23    24    25   ar
    24    25    26   ar
    25    26    27   ar
    26    27    28   ar
    27    28    29    1
    28    29    30    1
    29    30    31    1
    30    31    32    2
    31    28    23   ar
    32     6     1    1
    33    16    12   ar
    34    31    27    1
    35    10     4    1
    36    20    21    1
@<TRIPOS>MOLECULE
*****
 32 36 0 0 0
SMALL
GASTEIGER

@<TRIPOS>ATOM
      1 N         144.9776  141.5104  163.2639 N.3     1  UNL1       -0.2703
      2 C         144.6746  141.8842  161.8432 C.3     1  UNL1        0.0727
      3 C         144.0648  140.8750  160.9159 C.3     1  UNL1        0.0260
      4 C         143.7581  139.4921  161.4094 C.3     1  UNL1        0.0737
      5 C         144.0611  139.1184  162.8301 C.3     1  UNL1        0.0260
      6 C         144.6709  140.1275  163.7573 C.3     1  UNL1        0.0727
      7 C         143.3980  138.0784  161.7585 C.3     1  UNL1        0.0306
      8 C         142.8187  137.4321  160.5350 C.3     1  UNL1        0.0992
      9 N         142.8208  138.4463  159.4298 N.am    1  UNL1       -0.2516
     10 C         143.4014  139.7195  159.9702 C.2     1  UNL1        0.2289
     11 O         143.5919  140.9959  159.2057 O.2     1  UNL1       -0.2745
     12 C         142.3288  138.2261  158.0301 C.ar    1  UNL1        0.1141
     13 S         142.8206  137.1770  157.0775 S.2     1  UNL1        0.0292
     14 N         142.0544  137.3188  155.7958 N.ar    1  UNL1       -0.2055
     15 C         141.0889  138.4555  155.9562 C.ar    1  UNL1        0.1205
     16 C         141.2586  139.0162  157.3372 C.ar    1  UNL1        0.0986
     17 CL        140.4924  140.1654  157.9224 Cl      1  UNL1       -0.0787
     18 C         145.5874  142.5195  164.1912 C.3     1  UNL1        0.1063
     19 C         144.7062  143.4434  164.9785 C.3     1  UNL1        0.1483
     20 O         145.2339  144.1126  166.2129 O.3     1  UNL1       -0.3786
     21 H         144.5415  144.6717  166.5987 H       1  UNL1        0.2108
     22 C         142.4475  141.8659  166.1660 C.3     1  UNL1        0.0306
     23 C         142.1678  142.9093  165.1253 C.ar    1  UNL1       -0.0238
     24 C         143.2971  143.6980  164.5315 C.ar    1  UNL1        0.0015
     25 C         143.0174  144.7414  163.4908 C.ar    1  UNL1       -0.0020
     26 C         141.6084  144.9961  163.0438 C.ar    1  UNL1        0.0060
     27 C         140.4791  144.2074  163.6375 C.ar    1  UNL1        0.0748
     28 C         140.7588  143.1640  164.6783 C.ar    1  UNL1        0.0233
     29 C         139.4514  142.5483  165.0804 C.3     1  UNL1        0.2352
     30 O         138.3637  143.2112  164.2883 O.3     1  UNL1       -0.4404
     31 C         138.9989  144.2365  163.3965 C.2     1  UNL1        0.3413
     32 O         138.2801  145.1335  162.4328 O.2     1  UNL1       -0.2449
@<TRIPOS>BOND
     1    22    23    1
     2    23    24   ar
     3    24    19    1
     4    19    20    1
     5    19    18    1
     6    18     1    1
     7     1     2    1
     8     2     3    1
     9     3     4    1
    10     4     5    1
    11     5     6    1
    12     4     7    1
    13     7     8    1
    14     8     9    1
    15     9    12    1
    16    12    13   ar
    17    13    14   ar
    18    14    15   ar
    19    15    16   ar
    20    16    17    1
    21     9    10   am
    22    10    11    2
    23    24    25   ar
    24    25    26   ar
    25    26    27   ar
    26    27    28   ar
    27    28    29    1
    28    29    30    1
    29    30    31    1
    30    31    32    2
    31    28    23   ar
    32     6     1    1
    33    16    12   ar
    34    31    27    1
    35    10     4    1
    36    20    21    1
@<TRIPOS>MOLECULE
*****
 32 36 0 0 0
SMALL
GASTEIGER

@<TRIPOS>ATOM
      1 N         142.0324  142.2403  166.9281 N.3     1  UNL1       -0.2703
      2 C         140.9129  142.4366  165.9493 C.3     1  UNL1        0.0727
      3 C         141.1929  143.0235  164.5976 C.3     1  UNL1        0.0260
      4 C         142.5924  143.4140  164.2247 C.3     1  UNL1        0.0737
      5 C         143.7119  143.2176  165.2036 C.3     1  UNL1        0.0260
      6 C         143.4319  142.6307  166.5553 C.3     1  UNL1        0.0727
      7 C         143.9335  143.8496  163.7132 C.3     1  UNL1        0.0306
      8 C         143.7504  144.3731  162.3195 C.3     1  UNL1        0.0992
      9 N         142.2960  144.2611  161.9696 N.am    1  UNL1       -0.2516
     10 C         141.5804  143.6683  163.1471 C.2     1  UNL1        0.2289
     11 O         140.1108  143.3803  163.2321 O.2     1  UNL1       -0.2745
     12 C         141.6677  144.6699  160.6704 C.ar    1  UNL1        0.1141
     13 S         142.0846  144.2080  159.3056 S.2     1  UNL1        0.0292
     14 N         141.1867  144.8652  158.2996 N.ar    1  UNL1       -0.2055
     15 C         140.2149  145.7332  159.0426 C.ar    1  UNL1        0.1205
     16 C         140.5123  145.6125  160.5080 C.ar    1  UNL1        0.0986
     17 CL        139.7823  146.3117  161.6162 Cl      1  UNL1       -0.0787
     18 C         141.7524  141.6534  168.2799 C.3     1  UNL1        0.1063
     19 C         141.1152  140.3002  168.3927 C.3     1  UNL1        0.1483
     20 O         141.0036  139.6329  169.7315 O.3     1  UNL1       -0.3786
     21 H         140.5702  138.7713  169.6282 H       1  UNL1        0.2108
     22 C         143.0039  138.8915  166.5357 C.3     1  UNL1        0.0306
     23 C         141.5338  138.9099  166.2382 C.ar    1  UNL1       -0.0238
     24 C         140.5894  139.6142  167.1667 C.ar    1  UNL1        0.0015
     25 C         139.1194  139.6326  166.8692 C.ar    1  UNL1       -0.0020
     26 C         138.5936  138.9466  165.6433 C.ar    1  UNL1        0.0060
     27 C         139.5379  138.2423  164.7148 C.ar    1  UNL1        0.0748
     28 C         141.0080  138.2239  165.0123 C.ar    1  UNL1        0.0233
     29 C         141.6921  137.4548  163.9212 C.3     1  UNL1        0.2352
     30 O         140.6449  136.9979  162.9493 O.3     1  UNL1       -0.4404
     31 C         139.3135  137.4846  163.4398 C.2     1  UNL1        0.3413
     32 O         137.9900  137.2540  162.7726 O.2     1  UNL1       -0.2449
@<TRIPOS>BOND
     1    22    23    1
     2    23    24   ar
     3    24    19    1
     4    19    20    1
     5    19    18    1
     6    18     1    1
     7     1     2    1
     8     2     3    1
     9     3     4    1
    10     4     5    1
    11     5     6    1
    12     4     7    1
    13     7     8    1
    14     8     9    1
    15     9    12    1
    16    12    13   ar
    17    13    14   ar
    18    14    15   ar
    19    15    16   ar
    20    16    17    1
    21     9    10   am
    22    10    11    2
    23    24    25   ar
    24    25    26   ar
    25    26    27   ar
    26    27    28   ar
    27    28    29    1
    28    29    30    1
    29    30    31    1
    30    31    32    2
    31    28    23   ar
    32     6     1    1
    33    16    12   ar
    34    31    27    1
    35    10     4    1
    36    20    21    1
