@<TRIPOS>MOLECULE
*****
 34 38 0 0 0
SMALL
GASTEIGER

@<TRIPOS>ATOM
      1 O         138.7592  139.4249  168.1844 O.2     1  UNL1       -0.2698
      2 C         140.0254  140.0107  167.6335 C.2     1  UNL1        0.2516
      3 N         140.4588  139.6803  166.2360 N.am    1  UNL1       -0.2659
      4 C         141.7250  140.2662  165.6851 C.3     1  UNL1        0.1160
      5 C         142.1583  139.9357  164.2876 C.3     1  UNL1        0.1197
      6 N         141.3255  139.0194  163.4410 N.am    1  UNL1       -0.2555
      7 C         140.0593  138.4335  163.9919 C.2     1  UNL1        0.2497
      8 O         139.2264  137.5172  163.1453 O.2     1  UNL1       -0.2727
      9 C         139.6259  138.7640  165.3894 C.3     1  UNL1        0.1799
     10 C         140.8583  140.9271  168.4801 C.ar    1  UNL1        0.0811
     11 C         140.4051  142.3347  168.7312 C.ar    1  UNL1        0.0091
     12 C         141.2380  143.2510  169.5778 C.ar    1  UNL1        0.0299
     13 C         142.5240  142.7596  170.1733 C.ar    1  UNL1        0.1424
     14 F         143.3569  143.6759  171.0200 F       1  UNL1       -0.2041
     15 C         142.9772  141.3519  169.9223 C.ar    1  UNL1        0.0594
     16 C         142.1443  140.4357  169.0756 C.ar    1  UNL1        0.1467
     17 F         142.5975  139.0279  168.8245 F       1  UNL1       -0.2039
     18 C         141.7588  138.6889  162.0435 C.ar    1  UNL1        0.0541
     19 C         143.0016  137.8806  161.8150 C.ar    1  UNL1        0.0180
     20 C         143.4349  137.5502  160.4174 C.ar    1  UNL1        0.0382
     21 C         142.6255  138.0281  159.2485 C.ar    1  UNL1        0.1385
     22 C         141.3828  138.8364  159.4770 C.ar    1  UNL1        0.0382
     23 C         140.9494  139.1668  160.8745 C.ar    1  UNL1        0.0180
     24 O         143.0589  137.6976  157.8510 O.3     1  UNL1       -0.4791
     25 C         142.7559  136.3478  157.2712 C.3     1  UNL1        0.1687
     26 C         143.4106  135.1235  157.8391 C.3     1  UNL1        0.0609
     27 C         143.1076  133.7737  157.2593 C.3     1  UNL1        0.0758
     28 N         142.1500  133.6481  156.1116 N.3     1  UNL1       -0.2737
     29 C         141.4952  134.8725  155.5437 C.3     1  UNL1        0.0758
     30 C         141.7982  136.2223  156.1235 C.3     1  UNL1        0.0609
     31 C         141.8470  132.2983  155.5318 C.3     1  UNL1        0.0575
     32 C         142.3742  130.9101  155.7440 C.3     1  UNL1        0.0160
     33 C         141.4185  130.3894  154.7119 C.3     1  UNL1        0.0028
     34 C         140.8912  131.7775  154.4996 C.3     1  UNL1        0.0160
@<TRIPOS>BOND
     1     1     2    2
     2     2    10    1
     3    10    11   ar
     4    11    12   ar
     5    12    13   ar
     6    13    14    1
     7    13    15   ar
     8    15    16   ar
     9    16    17    1
    10     2     3   am
    11     3     4    1
    12     4     5    1
    13     5     6    1
    14     6    18    1
    15    18    19   ar
    16    19    20   ar
    17    20    21   ar
    18    21    24    1
    19    24    25    1
    20    25    26    1
    21    26    27    1
    22    27    28    1
    23    28    31    1
    24    31    32    1
    25    32    33    1
    26    33    34    1
    27    28    29    1
    28    29    30    1
    29    21    22   ar
    30    22    23   ar
    31     6     7   am
    32     7     8    2
    33     7     9    1
    34    16    10   ar
    35     9     3    1
    36    23    18   ar
    37    30    25    1
    38    34    31    1
@<TRIPOS>MOLECULE
*****
 34 38 0 0 0
SMALL
GASTEIGER

@<TRIPOS>ATOM
      1 O         138.7572  139.4146  168.3868 O.2     1  UNL1       -0.2698
      2 C         139.9449  140.0905  167.7682 C.2     1  UNL1        0.2516
      3 N         140.2733  139.8558  166.3236 N.am    1  UNL1       -0.2659
      4 C         141.4610  140.5317  165.7051 C.3     1  UNL1        0.1160
      5 C         141.7894  140.2969  164.2603 C.3     1  UNL1        0.1197
      6 N         140.9302  139.3864  163.4343 N.am    1  UNL1       -0.2555
      7 C         139.7425  138.7105  164.0528 C.2     1  UNL1        0.2497
      8 O         138.8832  137.7999  163.2267 O.2     1  UNL1       -0.2727
      9 C         139.4141  138.9452  165.4974 C.3     1  UNL1        0.1799
     10 C         140.8042  141.0011  168.5944 C.ar    1  UNL1        0.0811
     11 C         140.3520  142.4020  168.8823 C.ar    1  UNL1        0.0091
     12 C         141.2113  143.3126  169.7084 C.ar    1  UNL1        0.0299
     13 C         142.5227  142.8222  170.2467 C.ar    1  UNL1        0.1424
     14 F         143.3820  143.7328  171.0728 F       1  UNL1       -0.2041
     15 C         142.9749  141.4213  169.9588 C.ar    1  UNL1        0.0594
     16 C         142.1156  140.5107  169.1327 C.ar    1  UNL1        0.1467
     17 F         142.5677  139.1097  168.8448 F       1  UNL1       -0.2039
     18 C         141.2586  139.1517  161.9896 C.ar    1  UNL1        0.0541
     19 C         140.4822  139.8600  160.9193 C.ar    1  UNL1        0.0180
     20 C         140.8107  139.6252  159.4746 C.ar    1  UNL1        0.0382
     21 C         141.9155  138.6822  159.1003 C.ar    1  UNL1        0.1385
     22 C         142.6918  137.9739  160.1706 C.ar    1  UNL1        0.0382
     23 C         142.3634  138.2086  161.6152 C.ar    1  UNL1        0.0180
     24 O         142.2439  138.4475  157.6557 O.3     1  UNL1       -0.4791
     25 C         143.3857  139.1815  157.0172 C.3     1  UNL1        0.1687
     26 C         143.9935  138.6642  155.7473 C.3     1  UNL1        0.0609
     27 C         145.1353  139.3981  155.1089 C.3     1  UNL1        0.0758
     28 N         145.6693  140.6495  155.7404 N.3     1  UNL1       -0.2737
     29 C         145.0615  141.1669  157.0105 C.3     1  UNL1        0.0758
     30 C         143.9197  140.4329  157.6489 C.3     1  UNL1        0.0609
     31 C         146.8111  141.3835  155.1020 C.3     1  UNL1        0.0575
     32 C         148.2594  141.5874  155.4346 C.3     1  UNL1        0.0160
     33 C         148.4258  142.4215  154.1991 C.3     1  UNL1        0.0028
     34 C         146.9774  142.2177  153.8664 C.3     1  UNL1        0.0160
@<TRIPOS>BOND
     1     1     2    2
     2     2    10    1
     3    10    11   ar
     4    11    12   ar
     5    12    13   ar
     6    13    14    1
     7    13    15   ar
     8    15    16   ar
     9    16    17    1
    10     2     3   am
    11     3     4    1
    12     4     5    1
    13     5     6    1
    14     6    18    1
    15    18    19   ar
    16    19    20   ar
    17    20    21   ar
    18    21    24    1
    19    24    25    1
    20    25    26    1
    21    26    27    1
    22    27    28    1
    23    28    31    1
    24    31    32    1
    25    32    33    1
    26    33    34    1
    27    28    29    1
    28    29    30    1
    29    21    22   ar
    30    22    23   ar
    31     6     7   am
    32     7     8    2
    33     7     9    1
    34    16    10   ar
    35     9     3    1
    36    23    18   ar
    37    30    25    1
    38    34    31    1
@<TRIPOS>MOLECULE
*****
 34 38 0 0 0
SMALL
GASTEIGER

@<TRIPOS>ATOM
      1 O         143.2174  138.7597  168.1392 O.2     1  UNL1       -0.2698
      2 C         142.5306  139.9765  167.5936 C.2     1  UNL1        0.2516
      3 N         142.6695  140.3287  166.1423 N.am    1  UNL1       -0.2659
      4 C         141.9827  141.5455  165.5967 C.3     1  UNL1        0.1160
      5 C         142.1218  141.8977  164.1452 C.3     1  UNL1        0.1197
      6 N         142.9475  141.0331  163.2394 N.am    1  UNL1       -0.2555
      7 C         143.6343  139.8163  163.7850 C.2     1  UNL1        0.2497
      8 O         144.4601  138.9517  162.8792 O.2     1  UNL1       -0.2727
      9 C         143.4954  139.4641  165.2364 C.3     1  UNL1        0.1799
     10 C         141.7048  140.8411  168.4995 C.ar    1  UNL1        0.0811
     11 C         140.3228  140.4104  168.8927 C.ar    1  UNL1        0.0091
     12 C         139.4971  141.2750  169.7986 C.ar    1  UNL1        0.0299
     13 C         140.0533  142.5703  170.3112 C.ar    1  UNL1        0.1424
     14 F         139.2275  143.4349  171.2171 F       1  UNL1       -0.2041
     15 C         141.4353  143.0010  169.9180 C.ar    1  UNL1        0.0594
     16 C         142.2610  142.1364  169.0122 C.ar    1  UNL1        0.1467
     17 F         143.6430  142.5671  168.6189 F       1  UNL1       -0.2039
     18 C         143.0865  141.3854  161.7880 C.ar    1  UNL1        0.0541
     19 C         144.2621  142.1916  161.3211 C.ar    1  UNL1        0.0180
     20 C         144.4010  142.5438  159.8696 C.ar    1  UNL1        0.0382
     21 C         143.3644  142.0898  158.8851 C.ar    1  UNL1        0.1385
     22 C         142.1888  141.2836  159.3520 C.ar    1  UNL1        0.0382
     23 C         142.0499  140.9313  160.8034 C.ar    1  UNL1        0.0180
     24 O         143.5034  142.4420  157.4337 O.3     1  UNL1       -0.4791
     25 C         142.7162  143.5828  156.8601 C.3     1  UNL1        0.1687
     26 C         142.3667  144.7606  157.7206 C.3     1  UNL1        0.0609
     27 C         141.5796  145.9013  157.1470 C.3     1  UNL1        0.0758
     28 N         141.1419  145.8642  155.7128 N.3     1  UNL1       -0.2737
     29 C         141.4914  144.6864  154.8521 C.3     1  UNL1        0.0758
     30 C         142.2785  143.5457  155.4258 C.3     1  UNL1        0.0609
     31 C         140.3547  147.0050  155.1391 C.3     1  UNL1        0.0575
     32 C         140.4633  147.8558  153.9086 C.3     1  UNL1        0.0160
     33 C         139.2415  148.6182  154.3279 C.3     1  UNL1        0.0028
     34 C         139.1328  147.7674  155.5584 C.3     1  UNL1        0.0160
@<TRIPOS>BOND
     1     1     2    2
     2     2    10    1
     3    10    11   ar
     4    11    12   ar
     5    12    13   ar
     6    13    14    1
     7    13    15   ar
     8    15    16   ar
     9    16    17    1
    10     2     3   am
    11     3     4    1
    12     4     5    1
    13     5     6    1
    14     6    18    1
    15    18    19   ar
    16    19    20   ar
    17    20    21   ar
    18    21    24    1
    19    24    25    1
    20    25    26    1
    21    26    27    1
    22    27    28    1
    23    28    31    1
    24    31    32    1
    25    32    33    1
    26    33    34    1
    27    28    29    1
    28    29    30    1
    29    21    22   ar
    30    22    23   ar
    31     6     7   am
    32     7     8    2
    33     7     9    1
    34    16    10   ar
    35     9     3    1
    36    23    18   ar
    37    30    25    1
    38    34    31    1
@<TRIPOS>MOLECULE
*****
 34 38 0 0 0
SMALL
GASTEIGER

@<TRIPOS>ATOM
      1 O         143.2288  138.8857  168.0753 O.2     1  UNL1       -0.2698
      2 C         142.1146  139.7418  167.5502 C.2     1  UNL1        0.2516
      3 N         141.7429  139.6814  166.0983 N.am    1  UNL1       -0.2659
      4 C         140.6287  140.5375  165.5732 C.3     1  UNL1        0.1160
      5 C         140.2569  140.4771  164.1211 C.3     1  UNL1        0.1197
      6 N         140.9994  139.5607  163.1944 N.am    1  UNL1       -0.2555
      7 C         142.1136  138.7047  163.7195 C.2     1  UNL1        0.2497
      8 O         142.8561  137.7884  162.7927 O.2     1  UNL1       -0.2727
      9 C         142.4854  138.7650  165.1714 C.3     1  UNL1        0.1799
     10 C         141.3721  140.6582  168.4771 C.ar    1  UNL1        0.0811
     11 C         140.0863  140.2087  169.1053 C.ar    1  UNL1        0.0091
     12 C         139.3439  141.1250  170.0321 C.ar    1  UNL1        0.0299
     13 C         139.8873  142.4909  170.3307 C.ar    1  UNL1        0.1424
     14 F         139.1448  143.4073  171.2576 F       1  UNL1       -0.2041
     15 C         141.1731  142.9404  169.7025 C.ar    1  UNL1        0.0594
     16 C         141.9155  142.0240  168.7757 C.ar    1  UNL1        0.1467
     17 F         143.2014  142.4735  168.1474 F       1  UNL1       -0.2039
     18 C         140.6277  139.5004  161.7424 C.ar    1  UNL1        0.0541
     19 C         141.3005  140.4100  160.7575 C.ar    1  UNL1        0.0180
     20 C         140.9287  140.3496  159.3055 C.ar    1  UNL1        0.0382
     21 C         139.8841  139.3797  158.8385 C.ar    1  UNL1        0.1385
     22 C         139.2113  138.4702  159.8234 C.ar    1  UNL1        0.0382
     23 C         139.5830  138.5305  161.2753 C.ar    1  UNL1        0.0180
     24 O         139.5124  139.3194  157.3866 O.3     1  UNL1       -0.4791
     25 C         139.9729  138.1687  156.5417 C.3     1  UNL1        0.1687
     26 C         139.2089  137.7918  155.3071 C.3     1  UNL1        0.0609
     27 C         139.6694  136.6411  154.4622 C.3     1  UNL1        0.0758
     28 N         140.8939  135.8674  154.8518 N.3     1  UNL1       -0.2737
     29 C         141.6579  136.2442  156.0865 C.3     1  UNL1        0.0758
     30 C         141.1974  137.3949  156.9314 C.3     1  UNL1        0.0609
     31 C         141.3543  134.7167  154.0069 C.3     1  UNL1        0.0575
     32 C         141.1777  134.3169  152.5720 C.3     1  UNL1        0.0160
     33 C         142.0055  133.0894  152.8120 C.3     1  UNL1        0.0028
     34 C         142.1823  133.4890  154.2469 C.3     1  UNL1        0.0160
@<TRIPOS>BOND
     1     1     2    2
     2     2    10    1
     3    10    11   ar
     4    11    12   ar
     5    12    13   ar
     6    13    14    1
     7    13    15   ar
     8    15    16   ar
     9    16    17    1
    10     2     3   am
    11     3     4    1
    12     4     5    1
    13     5     6    1
    14     6    18    1
    15    18    19   ar
    16    19    20   ar
    17    20    21   ar
    18    21    24    1
    19    24    25    1
    20    25    26    1
    21    26    27    1
    22    27    28    1
    23    28    31    1
    24    31    32    1
    25    32    33    1
    26    33    34    1
    27    28    29    1
    28    29    30    1
    29    21    22   ar
    30    22    23   ar
    31     6     7   am
    32     7     8    2
    33     7     9    1
    34    16    10   ar
    35     9     3    1
    36    23    18   ar
    37    30    25    1
    38    34    31    1
@<TRIPOS>MOLECULE
*****
 34 38 0 0 0
SMALL
GASTEIGER

@<TRIPOS>ATOM
      1 O         143.2676  138.6906  168.1298 O.2     1  UNL1       -0.2698
      2 C         142.5496  139.8767  167.5574 C.2     1  UNL1        0.2516
      3 N         142.6810  140.2009  166.0988 N.am    1  UNL1       -0.2659
      4 C         141.9629  141.3870  165.5265 C.3     1  UNL1        0.1160
      5 C         142.0944  141.7112  164.0678 C.3     1  UNL1        0.1197
      6 N         142.9439  140.8494  163.1816 N.am    1  UNL1       -0.2555
      7 C         143.6620  139.6633  163.7539 C.2     1  UNL1        0.2497
      8 O         144.5115  138.8014  162.8676 O.2     1  UNL1       -0.2727
      9 C         143.5305  139.3391  165.2125 C.3     1  UNL1        0.1799
     10 C         141.7000  140.7386  168.4438 C.ar    1  UNL1        0.0811
     11 C         140.3324  140.2767  168.8514 C.ar    1  UNL1        0.0091
     12 C         139.4829  141.1386  169.7377 C.ar    1  UNL1        0.0299
     13 C         140.0011  142.4623  170.2164 C.ar    1  UNL1        0.1424
     14 F         139.1516  143.3242  171.1027 F       1  UNL1       -0.2041
     15 C         141.3688  142.9242  169.8088 C.ar    1  UNL1        0.0594
     16 C         142.2182  142.0624  168.9225 C.ar    1  UNL1        0.1467
     17 F         143.5859  142.5242  168.5149 F       1  UNL1       -0.2039
     18 C         143.0754  141.1736  161.7230 C.ar    1  UNL1        0.0541
     19 C         143.8556  142.3793  161.2900 C.ar    1  UNL1        0.0180
     20 C         143.9870  142.7035  159.8313 C.ar    1  UNL1        0.0382
     21 C         143.3382  141.8220  158.8057 C.ar    1  UNL1        0.1385
     22 C         142.5580  140.6163  159.2386 C.ar    1  UNL1        0.0382
     23 C         142.4265  140.2921  160.6972 C.ar    1  UNL1        0.0180
     24 O         143.4696  142.1462  157.3471 O.3     1  UNL1       -0.4791
     25 C         144.8082  142.0553  156.6762 C.3     1  UNL1        0.1687
     26 C         144.9266  141.4223  155.3215 C.3     1  UNL1        0.0609
     27 C         146.2651  141.3314  154.6506 C.3     1  UNL1        0.0758
     28 N         147.4852  141.8734  155.3344 N.3     1  UNL1       -0.2737
     29 C         147.3668  142.5064  156.6892 C.3     1  UNL1        0.0758
     30 C         146.0283  142.5973  157.3601 C.3     1  UNL1        0.0609
     31 C         148.8237  141.7824  154.6635 C.3     1  UNL1        0.0575
     32 C         149.2935  141.6863  153.2422 C.3     1  UNL1        0.0160
     33 C         150.7166  141.6538  153.7147 C.3     1  UNL1        0.0028
     34 C         150.2470  141.7499  155.1361 C.3     1  UNL1        0.0160
@<TRIPOS>BOND
     1     1     2    2
     2     2    10    1
     3    10    11   ar
     4    11    12   ar
     5    12    13   ar
     6    13    14    1
     7    13    15   ar
     8    15    16   ar
     9    16    17    1
    10     2     3   am
    11     3     4    1
    12     4     5    1
    13     5     6    1
    14     6    18    1
    15    18    19   ar
    16    19    20   ar
    17    20    21   ar
    18    21    24    1
    19    24    25    1
    20    25    26    1
    21    26    27    1
    22    27    28    1
    23    28    31    1
    24    31    32    1
    25    32    33    1
    26    33    34    1
    27    28    29    1
    28    29    30    1
    29    21    22   ar
    30    22    23   ar
    31     6     7   am
    32     7     8    2
    33     7     9    1
    34    16    10   ar
    35     9     3    1
    36    23    18   ar
    37    30    25    1
    38    34    31    1
@<TRIPOS>MOLECULE
*****
 34 38 0 0 0
SMALL
GASTEIGER

@<TRIPOS>ATOM
      1 O         143.3335  138.8077  168.0248 O.2     1  UNL1       -0.2698
      2 C         142.3000  139.7405  167.4664 C.2     1  UNL1        0.2516
      3 N         142.0387  139.7730  165.9897 N.am    1  UNL1       -0.2659
      4 C         141.0052  140.7058  165.4313 C.3     1  UNL1        0.1160
      5 C         140.7439  140.7383  163.9546 C.3     1  UNL1        0.1197
      6 N         141.5161  139.8381  163.0363 N.am    1  UNL1       -0.2555
      7 C         142.5495  138.9053  163.5947 C.2     1  UNL1        0.2497
      8 O         143.3217  138.0050  162.6764 O.2     1  UNL1       -0.2727
      9 C         142.8109  138.8727  165.0714 C.3     1  UNL1        0.1799
     10 C         141.5279  140.6408  168.3848 C.ar    1  UNL1        0.0811
     11 C         140.2428  140.1655  168.9953 C.ar    1  UNL1        0.0091
     12 C         139.4707  141.0658  169.9136 C.ar    1  UNL1        0.0299
     13 C         139.9837  142.4413  170.2214 C.ar    1  UNL1        0.1424
     14 F         139.2115  143.3416  171.1397 F       1  UNL1       -0.2041
     15 C         141.2687  142.9166  169.6108 C.ar    1  UNL1        0.0594
     16 C         142.0408  142.0163  168.6925 C.ar    1  UNL1        0.1467
     17 F         143.3259  142.4916  168.0820 F       1  UNL1       -0.2039
     18 C         141.2547  139.8706  161.5596 C.ar    1  UNL1        0.0541
     19 C         141.9588  140.8742  160.6953 C.ar    1  UNL1        0.0180
     20 C         141.6974  140.9067  159.2185 C.ar    1  UNL1        0.0382
     21 C         140.7320  139.9356  158.6062 C.ar    1  UNL1        0.1385
     22 C         140.0280  138.9320  159.4705 C.ar    1  UNL1        0.0382
     23 C         140.2893  138.8995  160.9472 C.ar    1  UNL1        0.0180
     24 O         140.4707  139.9682  157.1295 O.3     1  UNL1       -0.4791
     25 C         139.0847  140.2293  156.6187 C.3     1  UNL1        0.1687
     26 C         138.5329  139.4061  155.4928 C.3     1  UNL1        0.0609
     27 C         137.1469  139.6672  154.9820 C.3     1  UNL1        0.0758
     28 N         136.3128  140.7516  155.5971 N.3     1  UNL1       -0.2737
     29 C         136.8647  141.5749  156.7230 C.3     1  UNL1        0.0758
     30 C         138.2506  141.3138  157.2339 C.3     1  UNL1        0.0609
     31 C         134.9269  141.0127  155.0863 C.3     1  UNL1        0.0575
     32 C         133.5524  140.9845  155.6863 C.3     1  UNL1        0.0160
     33 C         132.9669  141.3821  154.3639 C.3     1  UNL1        0.0028
     34 C         134.3413  141.4103  153.7637 C.3     1  UNL1        0.0160
@<TRIPOS>BOND
     1     1     2    2
     2     2    10    1
     3    10    11   ar
     4    11    12   ar
     5    12    13   ar
     6    13    14    1
     7    13    15   ar
     8    15    16   ar
     9    16    17    1
    10     2     3   am
    11     3     4    1
    12     4     5    1
    13     5     6    1
    14     6    18    1
    15    18    19   ar
    16    19    20   ar
    17    20    21   ar
    18    21    24    1
    19    24    25    1
    20    25    26    1
    21    26    27    1
    22    27    28    1
    23    28    31    1
    24    31    32    1
    25    32    33    1
    26    33    34    1
    27    28    29    1
    28    29    30    1
    29    21    22   ar
    30    22    23   ar
    31     6     7   am
    32     7     8    2
    33     7     9    1
    34    16    10   ar
    35     9     3    1
    36    23    18   ar
    37    30    25    1
    38    34    31    1
@<TRIPOS>MOLECULE
*****
 34 38 0 0 0
SMALL
GASTEIGER

@<TRIPOS>ATOM
      1 O         139.6630  143.5844  166.5921 O.2     1  UNL1       -0.2698
      2 C         140.4326  142.3200  166.3489 C.2     1  UNL1        0.2516
      3 N         140.5024  141.7383  164.9681 N.am    1  UNL1       -0.2659
      4 C         141.2720  140.4740  164.7249 C.3     1  UNL1        0.1160
      5 C         141.3418  139.8922  163.3440 C.3     1  UNL1        0.1197
      6 N         140.6420  140.5749  162.2064 N.am    1  UNL1       -0.2555
      7 C         139.8724  141.8392  162.4495 C.2     1  UNL1        0.2497
      8 O         139.1727  142.5218  161.3119 O.2     1  UNL1       -0.2727
      9 C         139.8026  142.4209  163.8304 C.3     1  UNL1        0.1799
     10 C         141.1324  141.6374  167.4866 C.ar    1  UNL1        0.0811
     11 C         142.4927  142.1006  167.9167 C.ar    1  UNL1        0.0091
     12 C         143.1924  141.4180  169.0544 C.ar    1  UNL1        0.0299
     13 C         142.5319  140.2721  169.7620 C.ar    1  UNL1        0.1424
     14 F         143.2317  139.5895  170.8997 F       1  UNL1       -0.2041
     15 C         141.1716  139.8089  169.3319 C.ar    1  UNL1        0.0594
     16 C         140.4719  140.4915  168.1942 C.ar    1  UNL1        0.1467
     17 F         139.1115  140.0283  167.7641 F       1  UNL1       -0.2039
     18 C         140.7119  139.9931  160.8256 C.ar    1  UNL1        0.0541
     19 C         139.7028  138.9724  160.3898 C.ar    1  UNL1        0.0180
     20 C         139.7726  138.3907  159.0089 C.ar    1  UNL1        0.0382
     21 C         140.8515  138.8297  158.0639 C.ar    1  UNL1        0.1385
     22 C         141.8606  139.8504  158.4996 C.ar    1  UNL1        0.0382
     23 C         141.7908  140.4321  159.8804 C.ar    1  UNL1        0.0180
     24 O         140.9213  138.2480  156.6831 O.3     1  UNL1       -0.4791
     25 C         141.5682  136.9125  156.4636 C.3     1  UNL1        0.1687
     26 C         140.9573  135.9313  155.5076 C.3     1  UNL1        0.0609
     27 C         141.6042  134.5958  155.2882 C.3     1  UNL1        0.0758
     28 N         142.8619  134.2416  156.0248 N.3     1  UNL1       -0.2737
     29 C         143.4729  135.2229  156.9809 C.3     1  UNL1        0.0758
     30 C         142.8260  136.5583  157.2003 C.3     1  UNL1        0.0609
     31 C         143.5088  132.9062  155.8054 C.3     1  UNL1        0.0575
     32 C         144.7049  132.2010  156.3727 C.3     1  UNL1        0.0160
     33 C         144.4236  131.0176  155.4951 C.3     1  UNL1        0.0028
     34 C         143.2274  131.7227  154.9276 C.3     1  UNL1        0.0160
@<TRIPOS>BOND
     1     1     2    2
     2     2    10    1
     3    10    11   ar
     4    11    12   ar
     5    12    13   ar
     6    13    14    1
     7    13    15   ar
     8    15    16   ar
     9    16    17    1
    10     2     3   am
    11     3     4    1
    12     4     5    1
    13     5     6    1
    14     6    18    1
    15    18    19   ar
    16    19    20   ar
    17    20    21   ar
    18    21    24    1
    19    24    25    1
    20    25    26    1
    21    26    27    1
    22    27    28    1
    23    28    31    1
    24    31    32    1
    25    32    33    1
    26    33    34    1
    27    28    29    1
    28    29    30    1
    29    21    22   ar
    30    22    23   ar
    31     6     7   am
    32     7     8    2
    33     7     9    1
    34    16    10   ar
    35     9     3    1
    36    23    18   ar
    37    30    25    1
    38    34    31    1
@<TRIPOS>MOLECULE
*****
 34 38 0 0 0
SMALL
GASTEIGER

@<TRIPOS>ATOM
      1 O         137.3960  142.5720  163.3967 O.2     1  UNL1       -0.2698
      2 C         138.3877  141.4587  163.5611 C.2     1  UNL1        0.2516
      3 N         138.9884  140.8047  162.3522 N.am    1  UNL1       -0.2659
      4 C         139.9801  139.6914  162.5166 C.3     1  UNL1        0.1160
      5 C         140.5808  139.0375  161.3077 C.3     1  UNL1        0.1197
      6 N         140.1899  139.4969  159.9343 N.am    1  UNL1       -0.2555
      7 C         139.1982  140.6102  159.7699 C.2     1  UNL1        0.2497
      8 O         138.8072  141.0696  158.3966 O.2     1  UNL1       -0.2727
      9 C         138.5975  141.2641  160.9788 C.3     1  UNL1        0.1799
     10 C         138.7787  140.9993  164.9345 C.ar    1  UNL1        0.0811
     11 C         138.1937  139.7385  165.4985 C.ar    1  UNL1        0.0091
     12 C         138.5846  139.2792  166.8718 C.ar    1  UNL1        0.0299
     13 C         139.5606  140.0806  167.6812 C.ar    1  UNL1        0.1424
     14 F         139.9515  139.6212  169.0546 F       1  UNL1       -0.2041
     15 C         140.1456  141.3414  167.1173 C.ar    1  UNL1        0.0594
     16 C         139.7546  141.8008  165.7439 C.ar    1  UNL1        0.1467
     17 F         140.3396  143.0616  165.1799 F       1  UNL1       -0.2039
     18 C         140.7906  138.8429  158.7255 C.ar    1  UNL1        0.0541
     19 C         142.2460  139.0321  158.4157 C.ar    1  UNL1        0.0180
     20 C         142.8467  138.3781  157.2068 C.ar    1  UNL1        0.0382
     21 C         141.9920  137.5350  156.3076 C.ar    1  UNL1        0.1385
     22 C         140.5366  137.3458  156.6173 C.ar    1  UNL1        0.0382
     23 C         139.9359  137.9997  157.8262 C.ar    1  UNL1        0.0180
     24 O         142.5927  136.8810  155.0987 O.3     1  UNL1       -0.4791
     25 C         142.8558  135.4043  155.0977 C.3     1  UNL1        0.1687
     26 C         143.6726  134.7872  156.1940 C.3     1  UNL1        0.0609
     27 C         143.9357  133.3105  156.1930 C.3     1  UNL1        0.0758
     28 N         143.3820  132.4508  155.0956 N.3     1  UNL1       -0.2737
     29 C         142.5651  133.0678  153.9992 C.3     1  UNL1        0.0758
     30 C         142.3020  134.5446  154.0002 C.3     1  UNL1        0.0609
     31 C         143.6451  130.9741  155.0946 C.3     1  UNL1        0.0575
     32 C         142.7874  129.7439  155.0631 C.3     1  UNL1        0.0160
     33 C         144.0172  128.8856  155.0931 C.3     1  UNL1        0.0028
     34 C         144.8750  130.1157  155.1247 C.3     1  UNL1        0.0160
@<TRIPOS>BOND
     1     1     2    2
     2     2    10    1
     3    10    11   ar
     4    11    12   ar
     5    12    13   ar
     6    13    14    1
     7    13    15   ar
     8    15    16   ar
     9    16    17    1
    10     2     3   am
    11     3     4    1
    12     4     5    1
    13     5     6    1
    14     6    18    1
    15    18    19   ar
    16    19    20   ar
    17    20    21   ar
    18    21    24    1
    19    24    25    1
    20    25    26    1
    21    26    27    1
    22    27    28    1
    23    28    31    1
    24    31    32    1
    25    32    33    1
    26    33    34    1
    27    28    29    1
    28    29    30    1
    29    21    22   ar
    30    22    23   ar
    31     6     7   am
    32     7     8    2
    33     7     9    1
    34    16    10   ar
    35     9     3    1
    36    23    18   ar
    37    30    25    1
    38    34    31    1
@<TRIPOS>MOLECULE
*****
 34 38 0 0 0
SMALL
GASTEIGER

@<TRIPOS>ATOM
      1 O         137.8559  145.3033  154.7775 O.2     1  UNL1       -0.2698
      2 C         138.9046  146.0799  155.5171 C.2     1  UNL1        0.2516
      3 N         139.6739  145.4306  156.6291 N.am    1  UNL1       -0.2659
      4 C         140.7226  146.2072  157.3687 C.3     1  UNL1        0.1160
      5 C         141.4919  145.5578  158.4808 C.3     1  UNL1        0.1197
      6 N         141.2124  144.1319  158.8532 N.am    1  UNL1       -0.2555
      7 C         140.1637  143.3553  158.1135 C.2     1  UNL1        0.2497
      8 O         139.8842  141.9294  158.4859 O.2     1  UNL1       -0.2727
      9 C         139.3944  144.0046  157.0015 C.3     1  UNL1        0.1799
     10 C         139.1841  147.5059  155.1447 C.ar    1  UNL1        0.0811
     11 C         138.5149  148.6211  155.8919 C.ar    1  UNL1        0.0091
     12 C         138.7944  150.0470  155.5195 C.ar    1  UNL1        0.0299
     13 C         139.7431  150.3576  154.3998 C.ar    1  UNL1        0.1424
     14 F         140.0225  151.7836  154.0274 F       1  UNL1       -0.2041
     15 C         140.4122  149.2423  153.6526 C.ar    1  UNL1        0.0594
     16 C         140.1328  147.8165  154.0251 C.ar    1  UNL1        0.1467
     17 F         140.8020  146.7011  153.2779 F       1  UNL1       -0.2039
     18 C         141.9817  143.4826  159.9652 C.ar    1  UNL1        0.0541
     19 C         141.3893  143.4044  161.3410 C.ar    1  UNL1        0.0180
     20 C         142.1586  142.7551  162.4530 C.ar    1  UNL1        0.0382
     21 C         143.5203  142.1839  162.1892 C.ar    1  UNL1        0.1385
     22 C         144.1127  142.2621  160.8133 C.ar    1  UNL1        0.0382
     23 C         143.3434  142.9114  159.7013 C.ar    1  UNL1        0.0180
     24 O         144.2895  141.5346  163.3012 O.3     1  UNL1       -0.4791
     25 C         143.6059  141.2100  164.5963 C.3     1  UNL1        0.1687
     26 C         143.5765  142.2219  165.7031 C.3     1  UNL1        0.0609
     27 C         142.8929  141.8972  166.9982 C.3     1  UNL1        0.0758
     28 N         142.2386  140.5607  167.1864 N.3     1  UNL1       -0.2737
     29 C         142.2679  139.5487  166.0795 C.3     1  UNL1        0.0758
     30 C         142.9516  139.8733  164.7845 C.3     1  UNL1        0.0609
     31 C         141.5549  140.2361  168.4815 C.3     1  UNL1        0.0575
     32 C         140.1522  140.3552  168.9994 C.3     1  UNL1        0.0160
     33 C         140.5881  139.7770  170.3130 C.3     1  UNL1        0.0028
     34 C         141.9908  139.6578  169.7952 C.3     1  UNL1        0.0160
@<TRIPOS>BOND
     1     1     2    2
     2     2    10    1
     3    10    11   ar
     4    11    12   ar
     5    12    13   ar
     6    13    14    1
     7    13    15   ar
     8    15    16   ar
     9    16    17    1
    10     2     3   am
    11     3     4    1
    12     4     5    1
    13     5     6    1
    14     6    18    1
    15    18    19   ar
    16    19    20   ar
    17    20    21   ar
    18    21    24    1
    19    24    25    1
    20    25    26    1
    21    26    27    1
    22    27    28    1
    23    28    31    1
    24    31    32    1
    25    32    33    1
    26    33    34    1
    27    28    29    1
    28    29    30    1
    29    21    22   ar
    30    22    23   ar
    31     6     7   am
    32     7     8    2
    33     7     9    1
    34    16    10   ar
    35     9     3    1
    36    23    18   ar
    37    30    25    1
    38    34    31    1
