@<TRIPOS>MOLECULE
*****
 33 36 0 0 0
SMALL
GASTEIGER

@<TRIPOS>ATOM
      1 C         140.5440  141.2138  165.4552 C.2     1  UNL1       -0.0040
      2 C         139.5652  140.0777  165.4912 C.2     1  UNL1       -0.0221
      3 C         143.0032  143.2172  170.5482 C.3     1  UNL1        0.0310
      4 C         142.3884  142.7163  169.2750 C.ar    1  UNL1       -0.0218
      5 C         143.2163  141.9332  168.2997 C.ar    1  UNL1       -0.0043
      6 C         142.6015  141.4323  167.0265 C.ar    1  UNL1       -0.0003
      7 C         141.1588  141.7146  166.7285 C.ar    1  UNL1       -0.0003
      8 C         140.3309  142.4978  167.7037 C.ar    1  UNL1       -0.0003
      9 C         140.9457  142.9986  168.9770 C.ar    1  UNL1       -0.0043
     10 C         138.9504  139.5769  164.2179 C.ar    1  UNL1       -0.0040
     11 C         139.2353  138.1821  163.7454 C.ar    1  UNL1       -0.0003
     12 C         138.6205  137.6812  162.4722 C.ar    1  UNL1       -0.0000
     13 C         137.7208  138.5752  161.6714 C.ar    1  UNL1       -0.0000
     14 C         137.4358  139.9700  162.1439 C.ar    1  UNL1       -0.0000
     15 C         138.0506  140.4709  163.4172 C.ar    1  UNL1       -0.0003
     16 C         140.9079  141.8490  164.1461 C.ar    1  UNL1       -0.0002
     17 C         141.8086  141.1280  163.1873 C.ar    1  UNL1        0.0013
     18 C         142.1725  141.7632  161.8781 C.ar    1  UNL1        0.0145
     19 C         141.6359  143.1194  161.5276 C.ar    1  UNL1        0.0479
     20 C         140.7353  143.8403  162.4863 C.ar    1  UNL1        0.0145
     21 C         140.3713  143.2051  163.7955 C.ar    1  UNL1        0.0013
     22 N         141.9999  143.7546  160.2183 N.pl3   1  UNL1       -0.3047
     23 C         141.3436  145.0363  159.7984 C.3     1  UNL1        0.1079
     24 C         141.7076  145.6714  158.4892 C.3     1  UNL1        0.0903
     25 N         142.7280  145.0248  157.5999 N.3     1  UNL1       -0.2946
     26 C         143.3843  143.7431  158.0199 C.3     1  UNL1        0.0903
     27 C         143.0203  143.1080  159.3291 C.3     1  UNL1        0.1079
     28 H         143.4741  145.7068  157.4635 H       1  UNL1        0.1233
     29 C         139.2012  139.4425  166.8004 C.3     1  UNL1        0.0289
     30 C         137.7666  139.1331  167.1107 C.3     1  UNL1        0.0364
     31 C         137.3067  137.7074  167.1887 C.3     1  UNL1        0.1375
     32 O         136.4976  137.2435  168.3635 O.3     1  UNL1       -0.3820
     33 H         137.0410  137.2829  169.1661 H       1  UNL1        0.2104
@<TRIPOS>BOND
     1     3     4    1
     2     4     5   ar
     3     5     6   ar
     4     6     7   ar
     5     7     1    1
     6     1     2    2
     7     2    29    1
     8    29    30    1
     9    30    31    1
    10    31    32    1
    11     2    10    1
    12    10    11   ar
    13    11    12   ar
    14    12    13   ar
    15    13    14   ar
    16    14    15   ar
    17     1    16    1
    18    16    17   ar
    19    17    18   ar
    20    18    19   ar
    21    19    22    1
    22    22    23    1
    23    23    24    1
    24    24    25    1
    25    25    26    1
    26    26    27    1
    27    19    20   ar
    28    20    21   ar
    29     7     8   ar
    30     8     9   ar
    31     9     4   ar
    32    15    10   ar
    33    21    16   ar
    34    27    22    1
    35    32    33    1
    36    25    28    1
@<TRIPOS>MOLECULE
*****
 33 36 0 0 0
SMALL
GASTEIGER

@<TRIPOS>ATOM
      1 C         140.6323  141.2521  165.5420 C.2     1  UNL1       -0.0040
      2 C         139.6974  140.0799  165.5835 C.2     1  UNL1       -0.0221
      3 C         142.9831  143.3961  170.6290 C.3     1  UNL1        0.0310
      4 C         142.3954  142.8601  169.3573 C.ar    1  UNL1       -0.0218
      5 C         140.9640  143.1474  169.0130 C.ar    1  UNL1       -0.0043
      6 C         140.3763  142.6114  167.7413 C.ar    1  UNL1       -0.0003
      7 C         141.2200  141.7881  166.8138 C.ar    1  UNL1       -0.0003
      8 C         142.6514  141.5008  167.1580 C.ar    1  UNL1       -0.0003
      9 C         143.2391  142.0368  168.4298 C.ar    1  UNL1       -0.0043
     10 C         139.1098  139.5439  164.3118 C.ar    1  UNL1       -0.0040
     11 C         139.5343  138.2004  163.7972 C.ar    1  UNL1       -0.0003
     12 C         138.9466  137.6644  162.5255 C.ar    1  UNL1       -0.0000
     13 C         137.9344  138.4719  161.7683 C.ar    1  UNL1       -0.0000
     14 C         137.5098  139.8155  162.2828 C.ar    1  UNL1       -0.0000
     15 C         138.0975  140.3515  163.5546 C.ar    1  UNL1       -0.0003
     16 C         140.9795  141.8884  164.2288 C.ar    1  UNL1       -0.0002
     17 C         140.3715  143.2063  163.8499 C.ar    1  UNL1        0.0013
     18 C         140.7187  143.8425  162.5366 C.ar    1  UNL1        0.0145
     19 C         141.6739  143.1610  161.6023 C.ar    1  UNL1        0.0479
     20 C         142.2820  141.8432  161.9812 C.ar    1  UNL1        0.0145
     21 C         141.9348  141.2068  163.2945 C.ar    1  UNL1        0.0013
     22 N         142.0211  143.7973  160.2891 N.pl3   1  UNL1       -0.3047
     23 C         143.0192  143.1440  159.3797 C.3     1  UNL1        0.1079
     24 C         143.3663  143.7803  158.0665 C.3     1  UNL1        0.0903
     25 N         142.7154  145.0699  157.6627 N.3     1  UNL1       -0.2946
     26 C         141.7173  145.7233  158.5720 C.3     1  UNL1        0.0903
     27 C         141.3702  145.0869  159.8852 C.3     1  UNL1        0.1079
     28 H         142.2377  144.8945  156.7787 H       1  UNL1        0.1233
     29 C         139.3502  139.4436  166.8968 C.3     1  UNL1        0.0289
     30 C         137.9625  138.9271  167.1363 C.3     1  UNL1        0.0364
     31 C         137.6129  137.5162  166.7655 C.3     1  UNL1        0.1375
     32 O         136.9622  136.6153  167.7729 O.3     1  UNL1       -0.3820
     33 H         137.5806  136.4436  168.5002 H       1  UNL1        0.2104
@<TRIPOS>BOND
     1     3     4    1
     2     4     5   ar
     3     5     6   ar
     4     6     7   ar
     5     7     1    1
     6     1     2    2
     7     2    29    1
     8    29    30    1
     9    30    31    1
    10    31    32    1
    11     2    10    1
    12    10    11   ar
    13    11    12   ar
    14    12    13   ar
    15    13    14   ar
    16    14    15   ar
    17     1    16    1
    18    16    17   ar
    19    17    18   ar
    20    18    19   ar
    21    19    22    1
    22    22    23    1
    23    23    24    1
    24    24    25    1
    25    25    26    1
    26    26    27    1
    27    19    20   ar
    28    20    21   ar
    29     7     8   ar
    30     8     9   ar
    31     9     4   ar
    32    15    10   ar
    33    21    16   ar
    34    27    22    1
    35    32    33    1
    36    25    28    1
@<TRIPOS>MOLECULE
*****
 33 36 0 0 0
SMALL
GASTEIGER

@<TRIPOS>ATOM
      1 C         140.8144  140.6158  164.5747 C.2     1  UNL1       -0.0040
      2 C         139.3625  140.2451  164.5073 C.2     1  UNL1       -0.0221
      3 C         143.4650  141.4045  169.8994 C.3     1  UNL1        0.0310
      4 C         142.8023  141.2073  168.5683 C.ar    1  UNL1       -0.0218
      5 C         142.2475  142.3860  167.8247 C.ar    1  UNL1       -0.0043
      6 C         141.5849  142.1888  166.4935 C.ar    1  UNL1       -0.0003
      7 C         141.4770  140.8130  165.9059 C.ar    1  UNL1       -0.0003
      8 C         142.0318  139.6343  166.6495 C.ar    1  UNL1       -0.0003
      9 C         142.6945  139.8315  167.9806 C.ar    1  UNL1       -0.0043
     10 C         138.6999  140.0480  163.1761 C.ar    1  UNL1       -0.0040
     11 C         138.3855  138.6633  162.6926 C.ar    1  UNL1       -0.0003
     12 C         137.7228  138.4661  161.3614 C.ar    1  UNL1       -0.0000
     13 C         137.3746  139.6536  160.5138 C.ar    1  UNL1       -0.0000
     14 C         137.6889  141.0383  160.9972 C.ar    1  UNL1       -0.0000
     15 C         138.3516  141.2355  162.3284 C.ar    1  UNL1       -0.0003
     16 C         141.6036  140.7892  163.3111 C.ar    1  UNL1       -0.0002
     17 C         141.8262  142.1617  162.7481 C.ar    1  UNL1        0.0013
     18 C         142.6155  142.3351  161.4845 C.ar    1  UNL1        0.0145
     19 C         143.1822  141.1361  160.7836 C.ar    1  UNL1        0.0479
     20 C         142.9596  139.7636  161.3465 C.ar    1  UNL1        0.0145
     21 C         142.1704  139.5902  162.6102 C.ar    1  UNL1        0.0013
     22 N         143.9715  141.3096  159.5198 N.pl3   1  UNL1       -0.3047
     23 C         143.8640  140.2922  158.4229 C.3     1  UNL1        0.1079
     24 C         144.6533  140.4657  157.1592 C.3     1  UNL1        0.0903
     25 N         145.5500  141.6566  156.9925 N.3     1  UNL1       -0.2946
     26 C         145.6574  142.6739  158.0895 C.3     1  UNL1        0.0903
     27 C         144.8681  142.5004  159.3532 C.3     1  UNL1        0.1079
     28 H         145.2290  142.1528  156.1611 H       1  UNL1        0.1233
     29 C         138.5732  140.0717  165.7710 C.3     1  UNL1        0.0289
     30 C         138.3073  138.6960  166.3063 C.3     1  UNL1        0.0364
     31 C         137.4612  138.5188  167.5323 C.3     1  UNL1        0.1375
     32 O         136.5537  137.3305  167.6520 O.3     1  UNL1       -0.3820
     33 H         135.8562  137.3874  166.9803 H       1  UNL1        0.2104
@<TRIPOS>BOND
     1     3     4    1
     2     4     5   ar
     3     5     6   ar
     4     6     7   ar
     5     7     1    1
     6     1     2    2
     7     2    29    1
     8    29    30    1
     9    30    31    1
    10    31    32    1
    11     2    10    1
    12    10    11   ar
    13    11    12   ar
    14    12    13   ar
    15    13    14   ar
    16    14    15   ar
    17     1    16    1
    18    16    17   ar
    19    17    18   ar
    20    18    19   ar
    21    19    22    1
    22    22    23    1
    23    23    24    1
    24    24    25    1
    25    25    26    1
    26    26    27    1
    27    19    20   ar
    28    20    21   ar
    29     7     8   ar
    30     8     9   ar
    31     9     4   ar
    32    15    10   ar
    33    21    16   ar
    34    27    22    1
    35    32    33    1
    36    25    28    1
@<TRIPOS>MOLECULE
*****
 33 36 0 0 0
SMALL
GASTEIGER

@<TRIPOS>ATOM
      1 C         140.5365  141.0384  164.1914 C.2     1  UNL1       -0.0040
      2 C         141.7280  141.6398  164.8759 C.2     1  UNL1       -0.0221
      3 C         137.3071  136.8053  166.9576 C.3     1  UNL1        0.0310
      4 C         138.1145  137.8635  166.2660 C.ar    1  UNL1       -0.0218
      5 C         138.0376  139.2881  166.7294 C.ar    1  UNL1       -0.0043
      6 C         138.8449  140.3464  166.0379 C.ar    1  UNL1       -0.0003
      7 C         139.7292  139.9801  164.8829 C.ar    1  UNL1       -0.0003
      8 C         139.8061  138.5556  164.4196 C.ar    1  UNL1       -0.0003
      9 C         138.9987  137.4973  165.1111 C.ar    1  UNL1       -0.0043
     10 C         142.5353  142.6981  164.1844 C.ar    1  UNL1       -0.0040
     11 C         143.7625  142.3187  163.4097 C.ar    1  UNL1       -0.0003
     12 C         144.5698  143.3770  162.7181 C.ar    1  UNL1       -0.0000
     13 C         144.1500  144.8146  162.8013 C.ar    1  UNL1       -0.0000
     14 C         142.9228  145.1940  163.5759 C.ar    1  UNL1       -0.0000
     15 C         142.1154  144.1358  164.2675 C.ar    1  UNL1       -0.0003
     16 C         140.1524  141.4953  162.8153 C.ar    1  UNL1       -0.0002
     17 C         140.8374  140.9147  161.6137 C.ar    1  UNL1        0.0013
     18 C         140.4533  141.3715  160.2377 C.ar    1  UNL1        0.0145
     19 C         139.3841  142.4090  160.0630 C.ar    1  UNL1        0.0479
     20 C         138.6990  142.9896  161.2645 C.ar    1  UNL1        0.0145
     21 C         139.0832  142.5327  162.6407 C.ar    1  UNL1        0.0013
     22 N         139.0000  142.8659  158.6868 N.pl3   1  UNL1       -0.3047
     23 C         139.7952  143.9385  158.0035 C.3     1  UNL1        0.1079
     24 C         139.4110  144.3953  156.6274 C.3     1  UNL1        0.0903
     25 N         138.2317  143.7795  155.9346 N.3     1  UNL1       -0.2946
     26 C         137.4365  142.7068  156.6180 C.3     1  UNL1        0.0903
     27 C         137.8206  142.2500  157.9941 C.3     1  UNL1        0.1079
     28 H         138.5783  143.3789  155.0630 H       1  UNL1        0.1233
     29 C         142.1122  141.1829  166.2521 C.3     1  UNL1        0.0289
     30 C         143.0875  141.9835  167.0631 C.3     1  UNL1        0.0364
     31 C         142.8669  142.1659  168.5356 C.3     1  UNL1        0.1375
     32 O         143.9524  142.7505  169.3899 O.3     1  UNL1       -0.3820
     33 H         144.7082  142.1429  169.4130 H       1  UNL1        0.2104
@<TRIPOS>BOND
     1     3     4    1
     2     4     5   ar
     3     5     6   ar
     4     6     7   ar
     5     7     1    1
     6     1     2    2
     7     2    29    1
     8    29    30    1
     9    30    31    1
    10    31    32    1
    11     2    10    1
    12    10    11   ar
    13    11    12   ar
    14    12    13   ar
    15    13    14   ar
    16    14    15   ar
    17     1    16    1
    18    16    17   ar
    19    17    18   ar
    20    18    19   ar
    21    19    22    1
    22    22    23    1
    23    23    24    1
    24    24    25    1
    25    25    26    1
    26    26    27    1
    27    19    20   ar
    28    20    21   ar
    29     7     8   ar
    30     8     9   ar
    31     9     4   ar
    32    15    10   ar
    33    21    16   ar
    34    27    22    1
    35    32    33    1
    36    25    28    1
@<TRIPOS>MOLECULE
*****
 33 36 0 0 0
SMALL
GASTEIGER

@<TRIPOS>ATOM
      1 C         142.1503  140.9100  164.6102 C.2     1  UNL1       -0.0040
      2 C         142.4688  139.4529  164.4508 C.2     1  UNL1       -0.0221
      3 C         141.5764  143.2727  170.0955 C.3     1  UNL1        0.0310
      4 C         141.7199  142.6820  168.7241 C.ar    1  UNL1       -0.0218
      5 C         140.4986  142.3277  167.9286 C.ar    1  UNL1       -0.0043
      6 C         140.6421  141.7370  166.5573 C.ar    1  UNL1       -0.0003
      7 C         142.0068  141.5007  165.9815 C.ar    1  UNL1       -0.0003
      8 C         143.2281  141.8550  166.7771 C.ar    1  UNL1       -0.0003
      9 C         143.0846  142.4457  168.1484 C.ar    1  UNL1       -0.0043
     10 C         142.6123  138.8622  163.0794 C.ar    1  UNL1       -0.0040
     11 C         143.9707  138.7340  162.4565 C.ar    1  UNL1       -0.0003
     12 C         144.1142  138.1433  161.0851 C.ar    1  UNL1       -0.0000
     13 C         142.8993  137.6809  160.3368 C.ar    1  UNL1       -0.0000
     14 C         141.5407  137.8091  160.9598 C.ar    1  UNL1       -0.0000
     15 C         141.3973  138.3998  162.3311 C.ar    1  UNL1       -0.0003
     16 C         141.9753  141.7764  163.3983 C.ar    1  UNL1       -0.0002
     17 C         143.1608  142.4688  162.7938 C.ar    1  UNL1        0.0013
     18 C         142.9858  143.3352  161.5819 C.ar    1  UNL1        0.0145
     19 C         141.6253  143.5092  160.9745 C.ar    1  UNL1        0.0479
     20 C         140.4399  142.8169  161.5789 C.ar    1  UNL1        0.0145
     21 C         140.6149  141.9504  162.7909 C.ar    1  UNL1        0.0013
     22 N         141.4504  144.3756  159.7625 N.pl3   1  UNL1       -0.3047
     23 C         142.3973  144.2479  158.6063 C.3     1  UNL1        0.1079
     24 C         142.2223  145.1143  157.3944 C.3     1  UNL1        0.0903
     25 N         141.1004  146.1085  157.3388 N.3     1  UNL1       -0.2946
     26 C         140.1535  146.2362  158.4951 C.3     1  UNL1        0.0903
     27 C         140.3285  145.3698  159.7070 C.3     1  UNL1        0.1079
     28 H         140.5373  145.8717  156.5219 H       1  UNL1        0.1233
     29 C         142.6438  138.5864  165.6627 C.3     1  UNL1        0.0289
     30 C         144.0203  138.2864  166.1777 C.3     1  UNL1        0.0364
     31 C         144.2062  137.2939  167.2870 C.3     1  UNL1        0.1375
     32 O         145.4797  136.5072  167.3839 O.3     1  UNL1       -0.3820
     33 H         145.5514  135.9129  166.6207 H       1  UNL1        0.2104
@<TRIPOS>BOND
     1     3     4    1
     2     4     5   ar
     3     5     6   ar
     4     6     7   ar
     5     7     1    1
     6     1     2    2
     7     2    29    1
     8    29    30    1
     9    30    31    1
    10    31    32    1
    11     2    10    1
    12    10    11   ar
    13    11    12   ar
    14    12    13   ar
    15    13    14   ar
    16    14    15   ar
    17     1    16    1
    18    16    17   ar
    19    17    18   ar
    20    18    19   ar
    21    19    22    1
    22    22    23    1
    23    23    24    1
    24    24    25    1
    25    25    26    1
    26    26    27    1
    27    19    20   ar
    28    20    21   ar
    29     7     8   ar
    30     8     9   ar
    31     9     4   ar
    32    15    10   ar
    33    21    16   ar
    34    27    22    1
    35    32    33    1
    36    25    28    1
@<TRIPOS>MOLECULE
*****
 33 36 0 0 0
SMALL
GASTEIGER

@<TRIPOS>ATOM
      1 C         140.5762  141.0264  164.1610 C.2     1  UNL1       -0.0040
      2 C         141.7701  141.6192  164.8490 C.2     1  UNL1       -0.0221
      3 C         137.3393  136.7794  166.8968 C.3     1  UNL1        0.0310
      4 C         138.1485  137.8411  166.2129 C.ar    1  UNL1       -0.0218
      5 C         139.0893  137.4701  165.1051 C.ar    1  UNL1       -0.0043
      6 C         139.8985  138.5318  164.4211 C.ar    1  UNL1       -0.0003
      7 C         139.7670  139.9647  164.8450 C.ar    1  UNL1       -0.0003
      8 C         138.8262  140.3357  165.9528 C.ar    1  UNL1       -0.0003
      9 C         138.0170  139.2739  166.6367 C.ar    1  UNL1       -0.0043
     10 C         142.5793  142.6810  164.1650 C.ar    1  UNL1       -0.0040
     11 C         143.8134  142.3066  163.3991 C.ar    1  UNL1       -0.0003
     12 C         144.6226  143.3683  162.7151 C.ar    1  UNL1       -0.0000
     13 C         144.1978  144.8046  162.7972 C.ar    1  UNL1       -0.0000
     14 C         142.9636  145.1791  163.5632 C.ar    1  UNL1       -0.0000
     15 C         142.1544  144.1173  164.2471 C.ar    1  UNL1       -0.0003
     16 C         140.1917  141.4954  162.7891 C.ar    1  UNL1       -0.0002
     17 C         140.8620  140.9106  161.5813 C.ar    1  UNL1        0.0013
     18 C         140.4774  141.3796  160.2094 C.ar    1  UNL1        0.0145
     19 C         139.4225  142.4333  160.0453 C.ar    1  UNL1        0.0479
     20 C         138.7522  143.0180  161.2530 C.ar    1  UNL1        0.0145
     21 C         139.1368  142.5491  162.6250 C.ar    1  UNL1        0.0013
     22 N         139.0380  142.9022  158.6733 N.pl3   1  UNL1       -0.3047
     23 C         137.8865  142.2612  157.9569 C.3     1  UNL1        0.1079
     24 C         137.5020  142.7302  156.5850 C.3     1  UNL1        0.0903
     25 N         138.2690  143.8401  155.9294 N.3     1  UNL1       -0.2946
     26 C         139.4204  144.4811  156.6458 C.3     1  UNL1        0.0903
     27 C         139.8049  144.0122  158.0177 C.3     1  UNL1        0.1079
     28 H         137.5986  144.5817  155.7270 H       1  UNL1        0.1233
     29 C         142.1547  141.1503  166.2210 C.3     1  UNL1        0.0289
     30 C         143.1359  141.9398  167.0357 C.3     1  UNL1        0.0364
     31 C         142.7915  142.3455  168.4382 C.3     1  UNL1        0.1375
     32 O         143.8813  142.7062  169.4036 O.3     1  UNL1       -0.3820
     33 H         144.4212  141.9221  169.5895 H       1  UNL1        0.2104
@<TRIPOS>BOND
     1     3     4    1
     2     4     5   ar
     3     5     6   ar
     4     6     7   ar
     5     7     1    1
     6     1     2    2
     7     2    29    1
     8    29    30    1
     9    30    31    1
    10    31    32    1
    11     2    10    1
    12    10    11   ar
    13    11    12   ar
    14    12    13   ar
    15    13    14   ar
    16    14    15   ar
    17     1    16    1
    18    16    17   ar
    19    17    18   ar
    20    18    19   ar
    21    19    22    1
    22    22    23    1
    23    23    24    1
    24    24    25    1
    25    25    26    1
    26    26    27    1
    27    19    20   ar
    28    20    21   ar
    29     7     8   ar
    30     8     9   ar
    31     9     4   ar
    32    15    10   ar
    33    21    16   ar
    34    27    22    1
    35    32    33    1
    36    25    28    1
@<TRIPOS>MOLECULE
*****
 33 36 0 0 0
SMALL
GASTEIGER

@<TRIPOS>ATOM
      1 C         140.6187  140.9490  164.1559 C.2     1  UNL1       -0.0040
      2 C         141.8490  141.4961  164.8168 C.2     1  UNL1       -0.0221
      3 C         137.2766  136.8378  166.9716 C.3     1  UNL1        0.0310
      4 C         138.1121  137.8656  166.2677 C.ar    1  UNL1       -0.0218
      5 C         138.9906  137.4608  165.1213 C.ar    1  UNL1       -0.0043
      6 C         139.8262  138.4886  164.4174 C.ar    1  UNL1       -0.0003
      7 C         139.7832  139.9212  164.8598 C.ar    1  UNL1       -0.0003
      8 C         138.9046  140.3260  166.0062 C.ar    1  UNL1       -0.0003
      9 C         138.0691  139.2982  166.7101 C.ar    1  UNL1       -0.0043
     10 C         142.6845  142.5239  164.1129 C.ar    1  UNL1       -0.0040
     11 C         142.4098  143.9838  164.3202 C.ar    1  UNL1       -0.0003
     12 C         143.2453  145.0116  163.6163 C.ar    1  UNL1       -0.0000
     13 C         144.3556  144.5795  162.7050 C.ar    1  UNL1       -0.0000
     14 C         144.6304  143.1194  162.4976 C.ar    1  UNL1       -0.0000
     15 C         143.7949  142.0916  163.2016 C.ar    1  UNL1       -0.0003
     16 C         140.2239  141.4296  162.7909 C.ar    1  UNL1       -0.0002
     17 C         139.3214  142.6191  162.6466 C.ar    1  UNL1        0.0013
     18 C         138.9267  143.0998  161.2817 C.ar    1  UNL1        0.0145
     19 C         139.4343  142.3910  160.0610 C.ar    1  UNL1        0.0479
     20 C         140.3367  141.2016  160.2053 C.ar    1  UNL1        0.0145
     21 C         140.7315  140.7209  161.5703 C.ar    1  UNL1        0.0013
     22 N         139.0395  142.8717  158.6961 N.pl3   1  UNL1       -0.3047
     23 C         139.8275  143.9583  158.0266 C.3     1  UNL1        0.1079
     24 C         139.4327  144.4390  156.6617 C.3     1  UNL1        0.0903
     25 N         138.2498  143.8331  155.9663 N.3     1  UNL1       -0.2946
     26 C         137.4617  142.7465  156.6357 C.3     1  UNL1        0.0903
     27 C         137.8566  142.2658  158.0006 C.3     1  UNL1        0.1079
     28 H         138.5911  143.4491  155.0851 H       1  UNL1        0.1233
     29 C         142.2438  141.0154  166.1818 C.3     1  UNL1        0.0289
     30 C         142.9004  139.6766  166.3447 C.3     1  UNL1        0.0364
     31 C         143.4967  138.9841  165.1552 C.3     1  UNL1        0.1375
     32 O         144.9283  139.2324  164.7825 O.3     1  UNL1       -0.3820
     33 H         145.0342  140.1552  164.5030 H       1  UNL1        0.2104
@<TRIPOS>BOND
     1     3     4    1
     2     4     5   ar
     3     5     6   ar
     4     6     7   ar
     5     7     1    1
     6     1     2    2
     7     2    29    1
     8    29    30    1
     9    30    31    1
    10    31    32    1
    11     2    10    1
    12    10    11   ar
    13    11    12   ar
    14    12    13   ar
    15    13    14   ar
    16    14    15   ar
    17     1    16    1
    18    16    17   ar
    19    17    18   ar
    20    18    19   ar
    21    19    22    1
    22    22    23    1
    23    23    24    1
    24    24    25    1
    25    25    26    1
    26    26    27    1
    27    19    20   ar
    28    20    21   ar
    29     7     8   ar
    30     8     9   ar
    31     9     4   ar
    32    15    10   ar
    33    21    16   ar
    34    27    22    1
    35    32    33    1
    36    25    28    1
@<TRIPOS>MOLECULE
*****
 33 36 0 0 0
SMALL
GASTEIGER

@<TRIPOS>ATOM
      1 C         140.6222  140.3492  162.0674 C.2     1  UNL1       -0.0040
      2 C         142.1203  140.4236  162.0616 C.2     1  UNL1       -0.0221
      3 C         137.7300  138.4883  166.9839 C.3     1  UNL1        0.0310
      4 C         138.4531  138.9535  165.7548 C.ar    1  UNL1       -0.0218
      5 C         138.6910  140.4179  165.5337 C.ar    1  UNL1       -0.0043
      6 C         139.4140  140.8831  164.3046 C.ar    1  UNL1       -0.0003
      7 C         139.8992  139.8840  163.2965 C.ar    1  UNL1       -0.0003
      8 C         139.6612  138.4196  163.5176 C.ar    1  UNL1       -0.0003
      9 C         138.9382  137.9544  164.7467 C.ar    1  UNL1       -0.0043
     10 C         142.8434  140.8889  160.8325 C.ar    1  UNL1       -0.0040
     11 C         143.2504  139.8987  159.7818 C.ar    1  UNL1       -0.0003
     12 C         143.9735  140.3639  158.5527 C.ar    1  UNL1       -0.0000
     13 C         144.2895  141.8193  158.3742 C.ar    1  UNL1       -0.0000
     14 C         143.8825  142.8096  159.4249 C.ar    1  UNL1       -0.0000
     15 C         143.1594  142.3443  160.6540 C.ar    1  UNL1       -0.0003
     16 C         139.8472  140.7400  160.8441 C.ar    1  UNL1       -0.0002
     17 C         139.5194  139.7108  159.8032 C.ar    1  UNL1        0.0013
     18 C         138.7444  140.1016  158.5800 C.ar    1  UNL1        0.0145
     19 C         138.2970  141.5217  158.3974 C.ar    1  UNL1        0.0479
     20 C         138.6247  142.5509  159.4382 C.ar    1  UNL1        0.0145
     21 C         139.3998  142.1601  160.6616 C.ar    1  UNL1        0.0013
     22 N         137.5219  141.9125  157.1741 N.pl3   1  UNL1       -0.3047
     23 C         137.8339  143.1983  156.4675 C.3     1  UNL1        0.1079
     24 C         137.0588  143.5890  155.2442 C.3     1  UNL1        0.0903
     25 N         135.9718  142.6940  154.7275 N.3     1  UNL1       -0.2946
     26 C         135.6597  141.4081  155.4340 C.3     1  UNL1        0.0903
     27 C         136.4348  141.0174  156.6573 C.3     1  UNL1        0.1079
     28 H         136.2218  142.4502  153.7691 H       1  UNL1        0.1233
     29 C         142.8955  140.0328  163.2849 C.3     1  UNL1        0.0289
     30 C         144.3949  140.0690  163.2661 C.3     1  UNL1        0.0364
     31 C         145.1244  141.2377  163.8594 C.3     1  UNL1        0.1375
     32 O         146.3457  141.7827  163.1803 O.3     1  UNL1       -0.3820
     33 H         147.0532  141.1196  163.2062 H       1  UNL1        0.2104
@<TRIPOS>BOND
     1     3     4    1
     2     4     5   ar
     3     5     6   ar
     4     6     7   ar
     5     7     1    1
     6     1     2    2
     7     2    29    1
     8    29    30    1
     9    30    31    1
    10    31    32    1
    11     2    10    1
    12    10    11   ar
    13    11    12   ar
    14    12    13   ar
    15    13    14   ar
    16    14    15   ar
    17     1    16    1
    18    16    17   ar
    19    17    18   ar
    20    18    19   ar
    21    19    22    1
    22    22    23    1
    23    23    24    1
    24    24    25    1
    25    25    26    1
    26    26    27    1
    27    19    20   ar
    28    20    21   ar
    29     7     8   ar
    30     8     9   ar
    31     9     4   ar
    32    15    10   ar
    33    21    16   ar
    34    27    22    1
    35    32    33    1
    36    25    28    1
@<TRIPOS>MOLECULE
*****
 33 36 0 0 0
SMALL
GASTEIGER

@<TRIPOS>ATOM
      1 C         140.6747  141.1879  165.8354 C.2     1  UNL1       -0.0040
      2 C         139.5294  140.2211  165.8957 C.2     1  UNL1       -0.0221
      3 C         142.8770  143.5490  170.8925 C.3     1  UNL1        0.0310
      4 C         142.3264  142.9587  169.6282 C.ar    1  UNL1       -0.0218
      5 C         140.9926  143.4079  169.1095 C.ar    1  UNL1       -0.0043
      6 C         140.4420  142.8177  167.8452 C.ar    1  UNL1       -0.0003
      7 C         141.2253  141.7782  167.0997 C.ar    1  UNL1       -0.0003
      8 C         142.5591  141.3289  167.6184 C.ar    1  UNL1       -0.0003
      9 C         143.1096  141.9192  168.8827 C.ar    1  UNL1       -0.0043
     10 C         138.9788  139.6308  164.6314 C.ar    1  UNL1       -0.0040
     11 C         139.2815  138.2055  164.2752 C.ar    1  UNL1       -0.0003
     12 C         138.7309  137.6152  163.0110 C.ar    1  UNL1       -0.0000
     13 C         137.8777  138.4502  162.1028 C.ar    1  UNL1       -0.0000
     14 C         137.5750  139.8756  162.4590 C.ar    1  UNL1       -0.0000
     15 C         138.1256  140.4659  163.7233 C.ar    1  UNL1       -0.0003
     16 C         141.2694  141.5643  164.5108 C.ar    1  UNL1       -0.0002
     17 C         140.8919  142.8626  163.8610 C.ar    1  UNL1        0.0013
     18 C         141.4866  143.2391  162.5364 C.ar    1  UNL1        0.0145
     19 C         142.4587  142.3173  161.8616 C.ar    1  UNL1        0.0479
     20 C         142.8362  141.0192  162.5113 C.ar    1  UNL1        0.0145
     21 C         142.2415  140.6426  163.8360 C.ar    1  UNL1        0.0013
     22 N         143.0534  142.6939  160.5369 N.pl3   1  UNL1       -0.3047
     23 C         144.4287  142.2204  160.1704 C.3     1  UNL1        0.1079
     24 C         145.0233  142.5969  158.8458 C.3     1  UNL1        0.0903
     25 N         144.2426  143.4470  157.8877 N.3     1  UNL1       -0.2946
     26 C         142.8674  143.9205  158.2542 C.3     1  UNL1        0.0903
     27 C         142.2728  143.5439  159.5788 C.3     1  UNL1        0.1079
     28 H         144.1490  142.9093  157.0260 H       1  UNL1        0.1233
     29 C         138.9347  139.8446  167.2203 C.3     1  UNL1        0.0289
     30 C         139.8174  139.6971  168.4240 C.3     1  UNL1        0.0364
     31 C         139.3204  140.1195  169.7749 C.3     1  UNL1        0.1375
     32 O         139.8935  139.4968  171.0133 O.3     1  UNL1       -0.3820
     33 H         139.6584  138.5562  171.0407 H       1  UNL1        0.2104
@<TRIPOS>BOND
     1     3     4    1
     2     4     5   ar
     3     5     6   ar
     4     6     7   ar
     5     7     1    1
     6     1     2    2
     7     2    29    1
     8    29    30    1
     9    30    31    1
    10    31    32    1
    11     2    10    1
    12    10    11   ar
    13    11    12   ar
    14    12    13   ar
    15    13    14   ar
    16    14    15   ar
    17     1    16    1
    18    16    17   ar
    19    17    18   ar
    20    18    19   ar
    21    19    22    1
    22    22    23    1
    23    23    24    1
    24    24    25    1
    25    25    26    1
    26    26    27    1
    27    19    20   ar
    28    20    21   ar
    29     7     8   ar
    30     8     9   ar
    31     9     4   ar
    32    15    10   ar
    33    21    16   ar
    34    27    22    1
    35    32    33    1
    36    25    28    1
