@<TRIPOS>MOLECULE
*****
 19 20 0 0 0
SMALL
GASTEIGER

@<TRIPOS>ATOM
      1 N         142.2253  139.8462  167.0307 N.am    1  UNL1       -0.2763
      2 C         142.9413  138.7235  166.3401 C.2     1  UNL1        0.2499
      3 O         143.9989  137.9481  167.0683 O.2     1  UNL1       -0.2699
      4 C         142.5997  138.3761  164.9214 C.ar    1  UNL1        0.0650
      5 C         141.3752  137.5630  164.6224 C.ar    1  UNL1        0.0054
      6 C         141.0336  137.2157  163.2037 C.ar    1  UNL1        0.0011
      7 C         141.9165  137.6815  162.0841 C.ar    1  UNL1        0.0123
      8 C         143.1410  138.4946  162.3831 C.ar    1  UNL1        0.0683
      9 CL        144.0239  138.9604  161.2635 Cl      1  UNL1       -0.0814
     10 C         143.4826  138.8419  163.8018 C.ar    1  UNL1        0.0725
     11 CL        144.7071  139.6550  164.1009 Cl      1  UNL1       -0.0812
     12 C         142.5670  140.1936  168.4494 C.3     1  UNL1        0.0927
     13 C         142.3967  139.2992  169.6415 C.3     1  UNL1        0.0383
     14 C         142.8633  140.0491  170.8540 C.3     1  UNL1        0.0704
     15 N         143.3220  141.4069  170.4111 N.3     1  UNL1       -0.2960
     16 C         143.1388  141.4961  168.9250 C.3     1  UNL1        0.0887
     17 H         144.3062  141.5337  170.6468 H       1  UNL1        0.1233
     18 C         139.7208  140.4175  166.6417 C.3     1  UNL1        0.0233
     19 C         141.1677  140.6216  166.3025 C.3     1  UNL1        0.0938
@<TRIPOS>BOND
     1    18    19    1
     2    19     1    1
     3     1     2   am
     4     2     3    2
     5     2     4    1
     6     4     5   ar
     7     5     6   ar
     8     6     7   ar
     9     7     8   ar
    10     8     9    1
    11     8    10   ar
    12    10    11    1
    13    12     1    1
    14    12    13    1
    15    13    14    1
    16    14    15    1
    17    15    16    1
    18    10     4   ar
    19    16    12    1
    20    15    17    1
@<TRIPOS>MOLECULE
*****
 19 20 0 0 0
SMALL
GASTEIGER

@<TRIPOS>ATOM
      1 N         140.4821  140.0710  167.3576 N.am    1  UNL1       -0.2763
      2 C         139.1878  139.4405  166.9365 C.2     1  UNL1        0.2499
      3 O         138.1334  139.1375  167.9594 O.2     1  UNL1       -0.2699
      4 C         138.9480  139.1130  165.4925 C.ar    1  UNL1        0.0650
      5 C         139.2332  137.7328  164.9791 C.ar    1  UNL1        0.0054
      6 C         138.9933  137.4053  163.5351 C.ar    1  UNL1        0.0011
      7 C         138.4683  138.4580  162.6044 C.ar    1  UNL1        0.0123
      8 C         138.1831  139.8383  163.1178 C.ar    1  UNL1        0.0683
      9 CL        137.6581  140.8910  162.1872 Cl      1  UNL1       -0.0814
     10 C         138.4230  140.1657  164.5618 C.ar    1  UNL1        0.0725
     11 CL        138.1378  141.5460  165.0753 Cl      1  UNL1       -0.0812
     12 C         140.7219  140.3985  168.8017 C.3     1  UNL1        0.0927
     13 C         140.1924  141.5959  169.5338 C.3     1  UNL1        0.0383
     14 C         140.6766  141.5236  170.9518 C.3     1  UNL1        0.0704
     15 N         141.5053  140.2816  171.0959 N.3     1  UNL1       -0.2960
     16 C         141.5333  139.5863  169.7671 C.3     1  UNL1        0.0887
     17 H         141.0914  139.6689  171.7985 H       1  UNL1        0.1233
     18 C         142.6604  139.4069  166.1071 C.3     1  UNL1        0.0233
     19 C         141.5365  140.3740  166.3348 C.3     1  UNL1        0.0938
@<TRIPOS>BOND
     1    18    19    1
     2    19     1    1
     3     1     2   am
     4     2     3    2
     5     2     4    1
     6     4     5   ar
     7     5     6   ar
     8     6     7   ar
     9     7     8   ar
    10     8     9    1
    11     8    10   ar
    12    10    11    1
    13    12     1    1
    14    12    13    1
    15    13    14    1
    16    14    15    1
    17    15    16    1
    18    10     4   ar
    19    16    12    1
    20    15    17    1
@<TRIPOS>MOLECULE
*****
 19 20 0 0 0
SMALL
GASTEIGER

@<TRIPOS>ATOM
      1 N         140.0259  140.4400  167.1355 N.am    1  UNL1       -0.2763
      2 C         138.8657  139.6892  166.5523 C.2     1  UNL1        0.2499
      3 O         138.0498  138.7775  167.4201 O.2     1  UNL1       -0.2699
      4 C         138.5214  139.8500  165.1012 C.ar    1  UNL1        0.0650
      5 C         137.7960  141.0770  164.6340 C.ar    1  UNL1        0.0054
      6 C         137.4517  141.2378  163.1829 C.ar    1  UNL1        0.0011
      7 C         137.8329  140.1716  162.1991 C.ar    1  UNL1        0.0123
      8 C         138.5584  138.9447  162.6662 C.ar    1  UNL1        0.0683
      9 CL        138.9396  137.8786  161.6823 Cl      1  UNL1       -0.0814
     10 C         138.9026  138.7839  164.1173 C.ar    1  UNL1        0.0725
     11 CL        139.6281  137.5569  164.5845 Cl      1  UNL1       -0.0812
     12 C         140.3702  140.2791  168.5866 C.3     1  UNL1        0.0927
     13 C         139.5459  140.7545  169.7462 C.3     1  UNL1        0.0383
     14 C         140.2654  140.3838  171.0092 C.3     1  UNL1        0.0704
     15 N         141.5344  139.6795  170.6301 N.3     1  UNL1       -0.2960
     16 C         141.5991  139.6148  169.1329 C.3     1  UNL1        0.0887
     17 H         141.5357  138.7360  171.0177 H       1  UNL1        0.1233
     18 C         140.6399  142.8362  166.3411 C.3     1  UNL1        0.0233
     19 C         140.8419  141.3517  166.2677 C.3     1  UNL1        0.0938
@<TRIPOS>BOND
     1    18    19    1
     2    19     1    1
     3     1     2   am
     4     2     3    2
     5     2     4    1
     6     4     5   ar
     7     5     6   ar
     8     6     7   ar
     9     7     8   ar
    10     8     9    1
    11     8    10   ar
    12    10    11    1
    13    12     1    1
    14    12    13    1
    15    13    14    1
    16    14    15    1
    17    15    16    1
    18    10     4   ar
    19    16    12    1
    20    15    17    1
@<TRIPOS>MOLECULE
*****
 19 20 0 0 0
SMALL
GASTEIGER

@<TRIPOS>ATOM
      1 N         141.2478  142.2345  167.3382 N.am    1  UNL1       -0.2763
      2 C         142.7438  142.2933  167.2464 C.2     1  UNL1        0.2499
      3 O         143.5657  142.4571  168.4905 O.2     1  UNL1       -0.2699
      4 C         143.4181  142.1881  165.9106 C.ar    1  UNL1        0.0650
      5 C         143.8538  143.4298  165.1906 C.ar    1  UNL1        0.0054
      6 C         144.5280  143.3246  163.8549 C.ar    1  UNL1        0.0011
      7 C         144.7665  141.9778  163.2390 C.ar    1  UNL1        0.0123
      8 C         144.3307  140.7361  163.9590 C.ar    1  UNL1        0.0683
      9 CL        144.5692  139.3893  163.3432 Cl      1  UNL1       -0.0814
     10 C         143.6565  140.8413  165.2948 C.ar    1  UNL1        0.0725
     11 CL        143.2207  139.5996  166.0148 Cl      1  UNL1       -0.0812
     12 C         140.5736  142.3397  168.6740 C.3     1  UNL1        0.0927
     13 C         140.4563  143.5816  169.5071 C.3     1  UNL1        0.0383
     14 C         139.7085  143.2308  170.7592 C.3     1  UNL1        0.0704
     15 N         139.3636  141.7722  170.7000 N.3     1  UNL1       -0.2960
     16 C         139.8983  141.2214  169.4112 C.3     1  UNL1        0.0887
     17 H         138.3510  141.6542  170.7331 H       1  UNL1        0.1233
     18 C         139.8251  143.2732  165.4284 C.3     1  UNL1        0.0233
     19 C         140.4260  142.0707  166.0941 C.3     1  UNL1        0.0938
@<TRIPOS>BOND
     1    18    19    1
     2    19     1    1
     3     1     2   am
     4     2     3    2
     5     2     4    1
     6     4     5   ar
     7     5     6   ar
     8     6     7   ar
     9     7     8   ar
    10     8     9    1
    11     8    10   ar
    12    10    11    1
    13    12     1    1
    14    12    13    1
    15    13    14    1
    16    14    15    1
    17    15    16    1
    18    10     4   ar
    19    16    12    1
    20    15    17    1
@<TRIPOS>MOLECULE
*****
 19 20 0 0 0
SMALL
GASTEIGER

@<TRIPOS>ATOM
      1 N         140.8808  142.9855  164.7329 N.am    1  UNL1       -0.2763
      2 C         141.1262  141.5332  165.0165 C.2     1  UNL1        0.2499
      3 O         142.3378  140.8529  164.4513 O.2     1  UNL1       -0.2699
      4 C         140.1601  140.7610  165.8653 C.ar    1  UNL1        0.0650
      5 C         139.1113  139.9054  165.2186 C.ar    1  UNL1        0.0054
      6 C         138.1452  139.1333  166.0674 C.ar    1  UNL1        0.0011
      7 C         138.2279  139.2167  167.5628 C.ar    1  UNL1        0.0123
      8 C         139.2766  140.0723  168.2094 C.ar    1  UNL1        0.0683
      9 CL        139.3593  140.1557  169.7048 Cl      1  UNL1       -0.0814
     10 C         140.2427  140.8444  167.3607 C.ar    1  UNL1        0.0725
     11 CL        141.2915  141.7000  168.0073 Cl      1  UNL1       -0.0812
     12 C         141.8469  143.7577  163.8841 C.3     1  UNL1        0.0927
     13 C         143.2239  144.1930  164.2896 C.3     1  UNL1        0.0383
     14 C         143.8337  144.9345  163.1369 C.3     1  UNL1        0.0704
     15 N         142.8336  144.9573  162.0192 N.3     1  UNL1       -0.2960
     16 C         141.6057  144.2300  162.4810 C.3     1  UNL1        0.0887
     17 H         143.2219  144.4939  161.1977 H       1  UNL1        0.1233
     18 C         138.3945  143.7053  164.5083 C.3     1  UNL1        0.0233
     19 C         139.6692  143.6657  165.2981 C.3     1  UNL1        0.0938
@<TRIPOS>BOND
     1    18    19    1
     2    19     1    1
     3     1     2   am
     4     2     3    2
     5     2     4    1
     6     4     5   ar
     7     5     6   ar
     8     6     7   ar
     9     7     8   ar
    10     8     9    1
    11     8    10   ar
    12    10    11    1
    13    12     1    1
    14    12    13    1
    15    13    14    1
    16    14    15    1
    17    15    16    1
    18    10     4   ar
    19    16    12    1
    20    15    17    1
@<TRIPOS>MOLECULE
*****
 19 20 0 0 0
SMALL
GASTEIGER

@<TRIPOS>ATOM
      1 N         139.2669  139.6993  165.3371 N.am    1  UNL1       -0.2763
      2 C         140.6499  140.2714  165.4365 C.2     1  UNL1        0.2499
      3 O         141.4036  140.6324  164.1908 O.2     1  UNL1       -0.2699
      4 C         141.2794  140.4824  166.7816 C.ar    1  UNL1        0.0650
      5 C         142.1171  139.4003  167.3958 C.ar    1  UNL1        0.0054
      6 C         142.7465  139.6115  168.7409 C.ar    1  UNL1        0.0011
      7 C         142.5382  140.9047  169.4718 C.ar    1  UNL1        0.0123
      8 C         141.7005  141.9868  168.8576 C.ar    1  UNL1        0.0683
      9 CL        141.4922  143.2800  169.5885 Cl      1  UNL1       -0.0814
     10 C         141.0711  141.7757  167.5125 C.ar    1  UNL1        0.0725
     11 CL        140.2333  142.8578  166.8983 Cl      1  UNL1       -0.0812
     12 C         138.6374  139.4882  163.9919 C.3     1  UNL1        0.0927
     13 C         138.7400  138.2473  163.1556 C.3     1  UNL1        0.0383
     14 C         137.9609  138.4731  161.8937 C.3     1  UNL1        0.0704
     15 N         137.3768  139.8536  161.9504 N.3     1  UNL1       -0.2960
     16 C         137.7950  140.4810  163.2472 C.3     1  UNL1        0.0887
     17 H         136.3592  139.8012  161.9035 H       1  UNL1        0.1233
     18 C         137.7806  138.0319  166.6640 C.3     1  UNL1        0.0233
     19 C         138.5132  139.3383  166.5828 C.3     1  UNL1        0.0938
@<TRIPOS>BOND
     1    18    19    1
     2    19     1    1
     3     1     2   am
     4     2     3    2
     5     2     4    1
     6     4     5   ar
     7     5     6   ar
     8     6     7   ar
     9     7     8   ar
    10     8     9    1
    11     8    10   ar
    12    10    11    1
    13    12     1    1
    14    12    13    1
    15    13    14    1
    16    14    15    1
    17    15    16    1
    18    10     4   ar
    19    16    12    1
    20    15    17    1
@<TRIPOS>MOLECULE
*****
 19 20 0 0 0
SMALL
GASTEIGER

@<TRIPOS>ATOM
      1 N         139.9022  143.2082  163.9673 N.am    1  UNL1       -0.2763
      2 C         140.6751  142.0473  164.5193 C.2     1  UNL1        0.2499
      3 O         141.9286  141.5877  163.8357 O.2     1  UNL1       -0.2699
      4 C         140.1944  141.3459  165.7551 C.ar    1  UNL1        0.0650
      5 C         140.6742  141.7909  167.1048 C.ar    1  UNL1        0.0054
      6 C         140.1935  141.0895  168.3404 C.ar    1  UNL1        0.0011
      7 C         139.2329  139.9431  168.2264 C.ar    1  UNL1        0.0123
      8 C         138.7531  139.4981  166.8768 C.ar    1  UNL1        0.0683
      9 CL        137.7925  138.3516  166.7627 Cl      1  UNL1       -0.0814
     10 C         139.2338  140.1995  165.6411 C.ar    1  UNL1        0.0725
     11 CL        138.7539  139.7544  164.2913 Cl      1  UNL1       -0.0812
     12 C         140.3829  143.9097  162.7315 C.3     1  UNL1        0.0927
     13 C         139.9219  143.6411  161.3296 C.3     1  UNL1        0.0383
     14 C         140.6631  144.5682  160.4123 C.3     1  UNL1        0.0704
     15 N         141.5822  145.4096  161.2474 N.3     1  UNL1       -0.2960
     16 C         141.4090  145.0026  162.6807 C.3     1  UNL1        0.0887
     17 H         141.3453  146.3955  161.1366 H       1  UNL1        0.1233
     18 C         138.6640  144.9126  165.4878 C.3     1  UNL1        0.0233
     19 C         138.6487  143.6679  164.6509 C.3     1  UNL1        0.0938
@<TRIPOS>BOND
     1    18    19    1
     2    19     1    1
     3     1     2   am
     4     2     3    2
     5     2     4    1
     6     4     5   ar
     7     5     6   ar
     8     6     7   ar
     9     7     8   ar
    10     8     9    1
    11     8    10   ar
    12    10    11    1
    13    12     1    1
    14    12    13    1
    15    13    14    1
    16    14    15    1
    17    15    16    1
    18    10     4   ar
    19    16    12    1
    20    15    17    1
@<TRIPOS>MOLECULE
*****
 19 20 0 0 0
SMALL
GASTEIGER

@<TRIPOS>ATOM
      1 N         140.9723  141.7588  167.1859 N.am    1  UNL1       -0.2763
      2 C         140.2263  140.4577  167.2121 C.2     1  UNL1        0.2499
      3 O         139.8840  139.8157  168.5238 O.2     1  UNL1       -0.2699
      4 C         139.8226  139.7986  165.9265 C.ar    1  UNL1        0.0650
      5 C         138.4885  140.1050  165.3132 C.ar    1  UNL1        0.0054
      6 C         138.0849  139.4459  164.0276 C.ar    1  UNL1        0.0011
      7 C         139.0154  138.4804  163.3554 C.ar    1  UNL1        0.0123
      8 C         140.3496  138.1740  163.9687 C.ar    1  UNL1        0.0683
      9 CL        141.2801  137.2085  163.2964 Cl      1  UNL1       -0.0814
     10 C         140.7532  138.8331  165.2542 C.ar    1  UNL1        0.0725
     11 CL        142.0873  138.5267  165.8676 Cl      1  UNL1       -0.0812
     12 C         141.3759  142.4179  168.4715 C.3     1  UNL1        0.0927
     13 C         142.7040  142.2783  169.1547 C.3     1  UNL1        0.0383
     14 C         142.6713  143.1064  170.4051 C.3     1  UNL1        0.0704
     15 N         141.3230  143.7577  170.4945 N.3     1  UNL1       -0.2960
     16 C         140.5225  143.3321  169.2995 C.3     1  UNL1        0.0887
     17 H         141.4282  144.7723  170.4973 H       1  UNL1        0.1233
     18 C         142.7241  142.3566  165.3628 C.3     1  UNL1        0.0233
     19 C         141.3146  142.4008  165.8742 C.3     1  UNL1        0.0938
@<TRIPOS>BOND
     1    18    19    1
     2    19     1    1
     3     1     2   am
     4     2     3    2
     5     2     4    1
     6     4     5   ar
     7     5     6   ar
     8     6     7   ar
     9     7     8   ar
    10     8     9    1
    11     8    10   ar
    12    10    11    1
    13    12     1    1
    14    12    13    1
    15    13    14    1
    16    14    15    1
    17    15    16    1
    18    10     4   ar
    19    16    12    1
    20    15    17    1
@<TRIPOS>MOLECULE
*****
 19 20 0 0 0
SMALL
GASTEIGER

@<TRIPOS>ATOM
      1 N         142.2920  141.2025  167.7379 N.am    1  UNL1       -0.2763
      2 C         142.2190  140.6946  166.3284 C.2     1  UNL1        0.2499
      3 O         141.1711  139.6919  165.9459 O.2     1  UNL1       -0.2699
      4 C         143.1941  141.1893  165.3015 C.ar    1  UNL1        0.0650
      5 C         144.3806  140.3509  164.9286 C.ar    1  UNL1        0.0054
      6 C         145.3556  140.8456  163.9017 C.ar    1  UNL1        0.0011
      7 C         145.1440  142.1788  163.2476 C.ar    1  UNL1        0.0123
      8 C         143.9574  143.0172  163.6204 C.ar    1  UNL1        0.0683
      9 CL        143.7458  144.3504  162.9663 Cl      1  UNL1       -0.0814
     10 C         142.9825  142.5225  164.6474 C.ar    1  UNL1        0.0725
     11 CL        141.7958  143.3610  165.0203 Cl      1  UNL1       -0.0812
     12 C         141.3170  140.7078  168.7649 C.3     1  UNL1        0.0927
     13 C         139.9112  141.1960  168.9530 C.3     1  UNL1        0.0383
     14 C         139.3019  140.4279  170.0884 C.3     1  UNL1        0.0704
     15 N         140.3313  139.4652  170.6019 N.3     1  UNL1       -0.2960
     16 C         141.5766  139.6382  169.7839 C.3     1  UNL1        0.0887
     17 H         139.9872  138.5093  170.5107 H       1  UNL1        0.1233
     18 C         143.7099  142.3905  169.5623 C.3     1  UNL1        0.0233
     19 C         143.3400  142.2052  168.1205 C.3     1  UNL1        0.0938
@<TRIPOS>BOND
     1    18    19    1
     2    19     1    1
     3     1     2   am
     4     2     3    2
     5     2     4    1
     6     4     5   ar
     7     5     6   ar
     8     6     7   ar
     9     7     8   ar
    10     8     9    1
    11     8    10   ar
    12    10    11    1
    13    12     1    1
    14    12    13    1
    15    13    14    1
    16    14    15    1
    17    15    16    1
    18    10     4   ar
    19    16    12    1
    20    15    17    1
