@<TRIPOS>MOLECULE
*****
 33 36 0 0 0
SMALL
GASTEIGER

@<TRIPOS>ATOM
      1 N         137.9546  140.2964  163.3288 N.3     1  UNL1       -0.2698
      2 N         139.9085  140.0568  167.3754 N.pl3   1  UNL1       -0.2769
      3 C         138.6952  139.2265  167.0780 C.3     1  UNL1        0.0950
      4 C         138.0440  139.3063  165.7292 C.3     1  UNL1        0.0375
      5 C         138.6059  140.2165  164.6777 C.3     1  UNL1        0.0612
      6 C         139.8192  141.0469  164.9750 C.3     1  UNL1        0.0375
      7 C         140.4705  140.9671  166.3238 C.3     1  UNL1        0.0950
      8 N         143.5576  139.7617  171.1804 N.pl3   1  UNL1       -0.3278
      9 C         142.2372  139.8414  170.4732 C.ar    1  UNL1        0.2099
     10 N         142.0349  139.9094  168.9885 N.ar    1  UNL1       -0.1804
     11 C         140.5598  139.9770  168.7243 C.ar    1  UNL1        0.2395
     12 N         139.8506  139.9509  170.0457 N.ar    1  UNL1       -0.1349
     13 N         140.8872  139.8670  171.1266 N.ar    1  UNL1       -0.2453
     14 H         144.3941  139.7505  170.6613 H       1  UNL1        0.1451
     15 H         143.5878  139.7207  172.1635 H       1  UNL1        0.1451
     16 H         140.7122  139.8345  172.0949 H       1  UNL1        0.1919
     17 C         137.9997  139.1169  162.4032 C.3     1  UNL1        0.0770
     18 C         139.1936  138.9010  161.5210 C.3     1  UNL1        0.0437
     19 C         140.5769  139.0477  162.0819 C.ar    1  UNL1       -0.0207
     20 C         141.4135  140.2369  161.7134 C.ar    1  UNL1       -0.0034
     21 C         142.7969  140.3836  162.2743 C.ar    1  UNL1        0.0111
     22 C         143.3438  139.3410  163.2039 C.ar    1  UNL1        0.0577
     23 CL        144.7271  139.4877  163.7648 Cl      1  UNL1       -0.0822
     24 C         142.5072  138.1518  163.5724 C.ar    1  UNL1        0.0111
     25 C         141.1237  138.0051  163.0114 C.ar    1  UNL1       -0.0034
     26 C         137.2582  141.5557  162.9056 C.3     1  UNL1        0.1001
     27 C         138.0466  142.6859  162.3132 C.ar    1  UNL1        0.0075
     28 C         138.6094  142.5629  160.9282 C.ar    1  UNL1        0.0186
     29 C         139.3978  143.6932  160.3359 C.ar    1  UNL1        0.0987
     30 N         139.6234  144.9465  161.1285 N.ar    1  UNL1       -0.2415
     31 C         139.0606  145.0696  162.5134 C.ar    1  UNL1        0.1099
     32 C         138.2721  143.9393  163.1058 C.ar    1  UNL1        0.0741
     33 CL        137.7094  144.0624  164.4908 Cl      1  UNL1       -0.0809
@<TRIPOS>BOND
     1     8     9    1
     2     9    10   ar
     3    10    11   ar
     4    11     2    1
     5     2     3    1
     6     3     4    1
     7     4     5    1
     8     5     1    1
     9     1    17    1
    10    17    18    1
    11    18    19    1
    12    19    20   ar
    13    20    21   ar
    14    21    22   ar
    15    22    23    1
    16    22    24   ar
    17    24    25   ar
    18     1    26    1
    19    26    27    1
    20    27    28   ar
    21    28    29   ar
    22    29    30   ar
    23    30    31   ar
    24    31    32   ar
    25    32    33    1
    26     5     6    1
    27     6     7    1
    28    11    12   ar
    29    12    13   ar
    30    13     9   ar
    31     7     2    1
    32    25    19   ar
    33    32    27   ar
    34     8    14    1
    35     8    15    1
    36    13    16    1
@<TRIPOS>MOLECULE
*****
 33 36 0 0 0
SMALL
GASTEIGER

@<TRIPOS>ATOM
      1 N         137.9485  140.3116  163.3301 N.3     1  UNL1       -0.2698
      2 N         139.9089  140.0540  167.3724 N.pl3   1  UNL1       -0.2769
      3 C         140.4653  140.9738  166.3263 C.3     1  UNL1        0.0950
      4 C         139.8119  141.0596  164.9789 C.3     1  UNL1        0.0375
      5 C         138.6020  140.2257  164.6776 C.3     1  UNL1        0.0612
      6 C         138.0456  139.3059  165.7237 C.3     1  UNL1        0.0375
      7 C         138.6991  139.2201  167.0711 C.3     1  UNL1        0.0950
      8 N         143.5640  139.7404  171.1702 N.pl3   1  UNL1       -0.3278
      9 C         142.2425  139.8239  170.4655 C.ar    1  UNL1        0.2099
     10 N         142.0378  139.8982  168.9814 N.ar    1  UNL1       -0.1804
     11 C         140.5624  139.9681  168.7199 C.ar    1  UNL1        0.2395
     12 N         139.8553  139.9371  170.0424 N.ar    1  UNL1       -0.1349
     13 N         140.8936  139.8480  171.1212 N.ar    1  UNL1       -0.2453
     14 H         144.3996  139.7306  170.6497 H       1  UNL1        0.1451
     15 H         143.5957  139.6953  172.1531 H       1  UNL1        0.1451
     16 H         140.7202  139.8116  172.0896 H       1  UNL1        0.1919
     17 C         137.9885  139.1349  162.4008 C.3     1  UNL1        0.0770
     18 C         139.1803  138.9179  161.5161 C.3     1  UNL1        0.0437
     19 C         140.5650  139.0636  162.0742 C.ar    1  UNL1       -0.0207
     20 C         141.1131  138.0205  163.0024 C.ar    1  UNL1       -0.0034
     21 C         142.4978  138.1662  163.5604 C.ar    1  UNL1        0.0111
     22 C         143.3344  139.3549  163.1902 C.ar    1  UNL1        0.0577
     23 CL        144.7191  139.5006  163.7483 Cl      1  UNL1       -0.0822
     24 C         142.7863  140.3980  162.2620 C.ar    1  UNL1        0.0111
     25 C         141.4016  140.2523  161.7040 C.ar    1  UNL1       -0.0034
     26 C         137.2551  141.5743  162.9120 C.3     1  UNL1        0.1001
     27 C         138.0460  142.7047  162.3233 C.ar    1  UNL1        0.0075
     28 C         138.6138  142.5824  160.9403 C.ar    1  UNL1        0.0186
     29 C         139.4047  143.7128  160.3516 C.ar    1  UNL1        0.0987
     30 N         139.6279  144.9655  161.1459 N.ar    1  UNL1       -0.2415
     31 C         139.0601  145.0878  162.5289 C.ar    1  UNL1        0.1099
     32 C         138.2691  143.9574  163.1176 C.ar    1  UNL1        0.0741
     33 CL        137.7014  144.0797  164.5006 Cl      1  UNL1       -0.0809
@<TRIPOS>BOND
     1     8     9    1
     2     9    10   ar
     3    10    11   ar
     4    11     2    1
     5     2     3    1
     6     3     4    1
     7     4     5    1
     8     5     1    1
     9     1    17    1
    10    17    18    1
    11    18    19    1
    12    19    20   ar
    13    20    21   ar
    14    21    22   ar
    15    22    23    1
    16    22    24   ar
    17    24    25   ar
    18     1    26    1
    19    26    27    1
    20    27    28   ar
    21    28    29   ar
    22    29    30   ar
    23    30    31   ar
    24    31    32   ar
    25    32    33    1
    26     5     6    1
    27     6     7    1
    28    11    12   ar
    29    12    13   ar
    30    13     9   ar
    31     7     2    1
    32    25    19   ar
    33    32    27   ar
    34     8    14    1
    35     8    15    1
    36    13    16    1
@<TRIPOS>MOLECULE
*****
 33 36 0 0 0
SMALL
GASTEIGER

@<TRIPOS>ATOM
      1 N         138.2026  139.9835  163.4923 N.3     1  UNL1       -0.2698
      2 N         140.2162  140.0234  167.5164 N.pl3   1  UNL1       -0.2769
      3 C         138.8486  139.4254  167.3680 C.3     1  UNL1        0.0950
      4 C         138.1774  139.4121  166.0267 C.3     1  UNL1        0.0375
      5 C         138.8738  139.9968  164.8337 C.3     1  UNL1        0.0612
      6 C         140.2414  140.5947  164.9821 C.3     1  UNL1        0.0375
      7 C         140.9126  140.6080  166.3234 C.3     1  UNL1        0.0950
      8 N         143.8721  139.6349  171.3065 N.pl3   1  UNL1       -0.3278
      9 C         142.5679  139.8581  170.5999 C.ar    1  UNL1        0.2099
     10 N         142.3296  139.7224  169.1252 N.ar    1  UNL1       -0.1804
     11 C         140.8875  140.0367  168.8578 C.ar    1  UNL1        0.2395
     12 N         140.2345  140.3665  170.1673 N.ar    1  UNL1       -0.1349
     13 N         141.2730  140.2562  171.2440 N.ar    1  UNL1       -0.2453
     14 H         144.6713  139.3741  170.7941 H       1  UNL1        0.1451
     15 H         143.9289  139.7491  172.2827 H       1  UNL1        0.1451
     16 H         141.1299  140.4168  172.2047 H       1  UNL1        0.1919
     17 C         137.3284  141.1304  163.0797 C.3     1  UNL1        0.0770
     18 C         137.8755  142.2090  162.1922 C.3     1  UNL1        0.0437
     19 C         139.0863  142.9864  162.6158 C.ar    1  UNL1       -0.0207
     20 C         139.0031  143.9292  163.7795 C.ar    1  UNL1       -0.0034
     21 C         140.2140  144.7066  164.2030 C.ar    1  UNL1        0.0111
     22 C         141.5082  144.5412  163.4628 C.ar    1  UNL1        0.0577
     23 CL        142.7190  145.3186  163.8864 Cl      1  UNL1       -0.0822
     24 C         141.5914  143.5984  162.2991 C.ar    1  UNL1        0.0111
     25 C         140.3804  142.8210  161.8756 C.ar    1  UNL1       -0.0034
     26 C         138.4055  138.8232  162.5636 C.3     1  UNL1        0.1001
     27 C         139.6521  138.7356  161.7340 C.ar    1  UNL1        0.0075
     28 C         139.7369  139.4686  160.4279 C.ar    1  UNL1        0.0186
     29 C         140.9835  139.3810  159.5983 C.ar    1  UNL1        0.0987
     30 N         142.1454  138.5606  160.0747 N.ar    1  UNL1       -0.2415
     31 C         142.0606  137.8277  161.3807 C.ar    1  UNL1        0.1099
     32 C         140.8140  137.9152  162.2104 C.ar    1  UNL1        0.0741
     33 CL        140.7293  137.1823  163.5164 Cl      1  UNL1       -0.0809
@<TRIPOS>BOND
     1     8     9    1
     2     9    10   ar
     3    10    11   ar
     4    11     2    1
     5     2     3    1
     6     3     4    1
     7     4     5    1
     8     5     1    1
     9     1    17    1
    10    17    18    1
    11    18    19    1
    12    19    20   ar
    13    20    21   ar
    14    21    22   ar
    15    22    23    1
    16    22    24   ar
    17    24    25   ar
    18     1    26    1
    19    26    27    1
    20    27    28   ar
    21    28    29   ar
    22    29    30   ar
    23    30    31   ar
    24    31    32   ar
    25    32    33    1
    26     5     6    1
    27     6     7    1
    28    11    12   ar
    29    12    13   ar
    30    13     9   ar
    31     7     2    1
    32    25    19   ar
    33    32    27   ar
    34     8    14    1
    35     8    15    1
    36    13    16    1
@<TRIPOS>MOLECULE
*****
 33 36 0 0 0
SMALL
GASTEIGER

@<TRIPOS>ATOM
      1 N         142.6772  138.4678  163.4418 N.3     1  UNL1       -0.2698
      2 N         142.6797  140.5246  167.4442 N.pl3   1  UNL1       -0.2769
      3 C         142.3065  141.2887  166.2086 C.3     1  UNL1        0.0950
      4 C         142.3056  140.6031  164.8745 C.3     1  UNL1        0.0375
      5 C         142.6780  139.1534  164.7760 C.3     1  UNL1        0.0612
      6 C         143.0513  138.3893  166.0116 C.3     1  UNL1        0.0375
      7 C         143.0521  139.0749  167.3457 C.3     1  UNL1        0.0950
      8 N         143.4422  144.1040  171.2504 N.pl3   1  UNL1       -0.3278
      9 C         143.0310  142.8555  170.5279 C.ar    1  UNL1        0.2099
     10 N         143.2460  142.5682  169.0715 N.ar    1  UNL1       -0.1804
     11 C         142.6805  141.2102  168.7784 C.ar    1  UNL1        0.2395
     12 N         142.1160  140.6581  170.0537 N.ar    1  UNL1       -0.1349
     13 N         142.3326  141.6749  171.1350 N.ar    1  UNL1       -0.2453
     14 H         143.8980  144.8276  170.7626 H       1  UNL1        0.1451
     15 H         143.2563  144.2000  172.2124 H       1  UNL1        0.1451
     16 H         142.0636  141.5835  172.0776 H       1  UNL1        0.1919
     17 C         141.5522  137.5471  163.0724 C.3     1  UNL1        0.0770
     18 C         140.3389  138.0874  162.3752 C.3     1  UNL1        0.0437
     19 C         139.6547  139.3137  162.9026 C.ar    1  UNL1       -0.0207
     20 C         139.7492  140.6076  162.1498 C.ar    1  UNL1       -0.0034
     21 C         139.0651  141.8339  162.6771 C.ar    1  UNL1        0.0111
     22 C         138.2864  141.7662  163.9575 C.ar    1  UNL1        0.0577
     23 CL        137.6023  142.9925  164.4848 Cl      1  UNL1       -0.0822
     24 C         138.1919  140.4723  164.7103 C.ar    1  UNL1        0.0111
     25 C         138.8761  139.2460  164.1829 C.ar    1  UNL1       -0.0034
     26 C         143.8015  138.7030  162.4770 C.3     1  UNL1        0.1001
     27 C         143.8652  139.9828  161.6972 C.ar    1  UNL1        0.0075
     28 C         143.0653  140.1340  160.4373 C.ar    1  UNL1        0.0186
     29 C         143.1290  141.4138  159.6575 C.ar    1  UNL1        0.0987
     30 N         143.9926  142.5424  160.1375 N.ar    1  UNL1       -0.2415
     31 C         144.7925  142.3912  161.3974 C.ar    1  UNL1        0.1099
     32 C         144.7288  141.1114  162.1773 C.ar    1  UNL1        0.0741
     33 CL        145.5287  140.9602  163.4371 Cl      1  UNL1       -0.0809
@<TRIPOS>BOND
     1     8     9    1
     2     9    10   ar
     3    10    11   ar
     4    11     2    1
     5     2     3    1
     6     3     4    1
     7     4     5    1
     8     5     1    1
     9     1    17    1
    10    17    18    1
    11    18    19    1
    12    19    20   ar
    13    20    21   ar
    14    21    22   ar
    15    22    23    1
    16    22    24   ar
    17    24    25   ar
    18     1    26    1
    19    26    27    1
    20    27    28   ar
    21    28    29   ar
    22    29    30   ar
    23    30    31   ar
    24    31    32   ar
    25    32    33    1
    26     5     6    1
    27     6     7    1
    28    11    12   ar
    29    12    13   ar
    30    13     9   ar
    31     7     2    1
    32    25    19   ar
    33    32    27   ar
    34     8    14    1
    35     8    15    1
    36    13    16    1
@<TRIPOS>MOLECULE
*****
 33 36 0 0 0
SMALL
GASTEIGER

@<TRIPOS>ATOM
      1 N         139.1664  142.7335  164.6402 N.3     1  UNL1       -0.2698
      2 N         140.6219  144.3943  160.7193 N.pl3   1  UNL1       -0.2769
      3 C         139.7432  145.2258  161.6061 C.3     1  UNL1        0.0950
      4 C         139.2581  144.6722  162.9131 C.3     1  UNL1        0.0375
      5 C         139.6516  143.2871  163.3332 C.3     1  UNL1        0.0612
      6 C         140.5303  142.4555  162.4464 C.3     1  UNL1        0.0375
      7 C         141.0154  143.0092  161.1395 C.3     1  UNL1        0.0950
      8 N         140.7540  146.8326  156.0376 N.pl3   1  UNL1       -0.3278
      9 C         141.1678  146.0687  157.2604 C.ar    1  UNL1        0.2099
     10 N         140.2825  145.7083  158.4164 N.ar    1  UNL1       -0.1804
     11 C         141.1071  144.9479  159.4123 C.ar    1  UNL1        0.2395
     12 N         142.5020  144.8383  158.8718 N.ar    1  UNL1       -0.1349
     13 N         142.5396  145.5309  157.5419 N.ar    1  UNL1       -0.2453
     14 H         139.8253  147.1456  155.9436 H       1  UNL1        0.1451
     15 H         141.4111  147.0210  155.3291 H       1  UNL1        0.1451
     16 H         143.3264  145.6175  156.9565 H       1  UNL1        0.1919
     17 C         139.7838  143.1966  165.9263 C.3     1  UNL1        0.0770
     18 C         140.8912  142.4036  166.5550 C.3     1  UNL1        0.0437
     19 C         142.1717  142.1797  165.8066 C.ar    1  UNL1       -0.0207
     20 C         142.6653  140.7838  165.5657 C.ar    1  UNL1       -0.0034
     21 C         143.9458  140.5599  164.8173 C.ar    1  UNL1        0.0111
     22 C         144.7327  141.7318  164.3098 C.ar    1  UNL1        0.0577
     23 CL        146.0132  141.5078  163.5614 Cl      1  UNL1       -0.0822
     24 C         144.2390  143.1276  164.5506 C.ar    1  UNL1        0.0111
     25 C         142.9585  143.3515  165.2991 C.ar    1  UNL1       -0.0034
     26 C         138.0637  141.7167  164.6609 C.3     1  UNL1        0.1001
     27 C         138.3427  140.2995  164.2566 C.ar    1  UNL1        0.0075
     28 C         138.9416  139.3419  165.2438 C.ar    1  UNL1        0.0186
     29 C         139.2205  137.9247  164.8395 C.ar    1  UNL1        0.0987
     30 N         138.9006  137.4649  163.4480 N.ar    1  UNL1       -0.2415
     31 C         138.3017  138.4223  162.4608 C.ar    1  UNL1        0.1099
     32 C         138.0227  139.8397  162.8651 C.ar    1  UNL1        0.0741
     33 CL        137.4238  140.7972  161.8780 Cl      1  UNL1       -0.0809
@<TRIPOS>BOND
     1     8     9    1
     2     9    10   ar
     3    10    11   ar
     4    11     2    1
     5     2     3    1
     6     3     4    1
     7     4     5    1
     8     5     1    1
     9     1    17    1
    10    17    18    1
    11    18    19    1
    12    19    20   ar
    13    20    21   ar
    14    21    22   ar
    15    22    23    1
    16    22    24   ar
    17    24    25   ar
    18     1    26    1
    19    26    27    1
    20    27    28   ar
    21    28    29   ar
    22    29    30   ar
    23    30    31   ar
    24    31    32   ar
    25    32    33    1
    26     5     6    1
    27     6     7    1
    28    11    12   ar
    29    12    13   ar
    30    13     9   ar
    31     7     2    1
    32    25    19   ar
    33    32    27   ar
    34     8    14    1
    35     8    15    1
    36    13    16    1
@<TRIPOS>MOLECULE
*****
 33 36 0 0 0
SMALL
GASTEIGER

@<TRIPOS>ATOM
      1 N         141.4109  141.8932  166.2775 N.3     1  UNL1       -0.2698
      2 N         141.1071  143.8713  162.2471 N.pl3   1  UNL1       -0.2769
      3 C         142.0806  142.7504  162.4609 C.3     1  UNL1        0.0950
      4 C         142.1818  142.0910  163.8043 C.3     1  UNL1        0.0375
      5 C         141.3096  142.5526  164.9340 C.3     1  UNL1        0.0612
      6 C         140.3361  143.6735  164.7202 C.3     1  UNL1        0.0375
      7 C         140.2348  144.3329  163.3767 C.3     1  UNL1        0.0950
      8 N         142.3826  145.9394  157.5591 N.pl3   1  UNL1       -0.3278
      9 C         141.5921  145.4813  158.7487 C.ar    1  UNL1        0.2099
     10 N         142.1470  144.8146  159.9724 N.ar    1  UNL1       -0.1804
     11 C         141.0058  144.5308  160.9035 C.ar    1  UNL1        0.2395
     12 N         139.7455  145.0221  160.2553 N.ar    1  UNL1       -0.1349
     13 N         140.1078  145.6096  158.9236 N.ar    1  UNL1       -0.2453
     14 H         143.3584  145.8105  157.5371 H       1  UNL1        0.1451
     15 H         141.9256  146.3690  156.8002 H       1  UNL1        0.1451
     16 H         139.4814  146.0092  158.2777 H       1  UNL1        0.1919
     17 C         142.3831  140.7710  166.4908 C.3     1  UNL1        0.0770
     18 C         141.9196  139.3479  166.3905 C.3     1  UNL1        0.0437
     19 C         140.9768  138.9414  165.2970 C.ar    1  UNL1       -0.0207
     20 C         141.4931  138.2037  164.0973 C.ar    1  UNL1       -0.0034
     21 C         140.5503  137.7972  163.0038 C.ar    1  UNL1        0.0111
     22 C         139.0912  138.1285  163.1098 C.ar    1  UNL1        0.0577
     23 CL        138.1484  137.7221  162.0163 Cl      1  UNL1       -0.0822
     24 C         138.5749  138.8663  164.3095 C.ar    1  UNL1        0.0111
     25 C         139.5178  139.2727  165.4031 C.ar    1  UNL1       -0.0034
     26 C         140.5399  142.3560  167.4077 C.3     1  UNL1        0.1001
     27 C         140.9107  142.0272  168.8234 C.ar    1  UNL1        0.0075
     28 C         141.9626  142.8306  169.5292 C.ar    1  UNL1        0.0186
     29 C         142.3333  142.5018  170.9450 C.ar    1  UNL1        0.0987
     30 N         141.6522  141.3696  171.6550 N.ar    1  UNL1       -0.2415
     31 C         140.6003  140.5662  170.9493 C.ar    1  UNL1        0.1099
     32 C         140.2295  140.8950  169.5335 C.ar    1  UNL1        0.0741
     33 CL        139.1776  140.0916  168.8278 Cl      1  UNL1       -0.0809
@<TRIPOS>BOND
     1     8     9    1
     2     9    10   ar
     3    10    11   ar
     4    11     2    1
     5     2     3    1
     6     3     4    1
     7     4     5    1
     8     5     1    1
     9     1    17    1
    10    17    18    1
    11    18    19    1
    12    19    20   ar
    13    20    21   ar
    14    21    22   ar
    15    22    23    1
    16    22    24   ar
    17    24    25   ar
    18     1    26    1
    19    26    27    1
    20    27    28   ar
    21    28    29   ar
    22    29    30   ar
    23    30    31   ar
    24    31    32   ar
    25    32    33    1
    26     5     6    1
    27     6     7    1
    28    11    12   ar
    29    12    13   ar
    30    13     9   ar
    31     7     2    1
    32    25    19   ar
    33    32    27   ar
    34     8    14    1
    35     8    15    1
    36    13    16    1
@<TRIPOS>MOLECULE
*****
 33 36 0 0 0
SMALL
GASTEIGER

@<TRIPOS>ATOM
      1 N         139.2414  139.0225  162.4397 N.3     1  UNL1       -0.2698
      2 N         139.8321  139.6522  166.8560 N.pl3   1  UNL1       -0.2769
      3 C         140.8110  140.2317  165.8783 C.3     1  UNL1        0.0950
      4 C         140.6141  140.0218  164.4062 C.3     1  UNL1        0.0375
      5 C         139.4383  139.2324  163.9119 C.3     1  UNL1        0.0612
      6 C         138.4594  138.6529  164.8896 C.3     1  UNL1        0.0375
      7 C         138.6564  138.8628  166.3617 C.3     1  UNL1        0.0950
      8 N         142.0919  140.5591  171.5413 N.pl3   1  UNL1       -0.3278
      9 C         141.0678  140.2790  170.4818 C.ar    1  UNL1        0.2099
     10 N         141.3351  140.1374  169.0126 N.ar    1  UNL1       -0.1804
     11 C         140.0291  139.8621  168.3282 C.ar    1  UNL1        0.2395
     12 N         138.9545  139.8337  169.3744 N.ar    1  UNL1       -0.1349
     13 N         139.5964  140.0913  170.7054 N.ar    1  UNL1       -0.2453
     14 H         143.0388  140.6672  171.2944 H       1  UNL1        0.1451
     15 H         141.8172  140.6349  172.4837 H       1  UNL1        0.1451
     16 H         139.1334  140.1303  171.5733 H       1  UNL1        0.1919
     17 C         138.2683  139.8778  161.6837 C.3     1  UNL1        0.0770
     18 C         138.5903  141.3170  161.4095 C.3     1  UNL1        0.0437
     19 C         138.5816  142.3142  162.5300 C.ar    1  UNL1       -0.0207
     20 C         139.6675  143.3445  162.6255 C.ar    1  UNL1       -0.0034
     21 C         139.6588  144.3417  163.7460 C.ar    1  UNL1        0.0111
     22 C         138.5642  144.3084  164.7711 C.ar    1  UNL1        0.0577
     23 CL        138.5555  145.3056  165.8916 Cl      1  UNL1       -0.0822
     24 C         137.4783  143.2781  164.6756 C.ar    1  UNL1        0.0111
     25 C         137.4870  142.2809  163.5550 C.ar    1  UNL1       -0.0034
     26 C         140.0175  137.9572  161.7236 C.3     1  UNL1        0.1001
     27 C         141.3878  138.2568  161.1920 C.ar    1  UNL1        0.0075
     28 C         142.5922  138.0437  162.0604 C.ar    1  UNL1        0.0186
     29 C         143.9625  138.3433  161.5288 C.ar    1  UNL1        0.0987
     30 N         144.1284  138.8560  160.1290 N.ar    1  UNL1       -0.2415
     31 C         142.9240  139.0691  159.2607 C.ar    1  UNL1        0.1099
     32 C         141.5537  138.7695  159.7922 C.ar    1  UNL1        0.0741
     33 CL        140.3493  138.9827  158.9239 Cl      1  UNL1       -0.0809
@<TRIPOS>BOND
     1     8     9    1
     2     9    10   ar
     3    10    11   ar
     4    11     2    1
     5     2     3    1
     6     3     4    1
     7     4     5    1
     8     5     1    1
     9     1    17    1
    10    17    18    1
    11    18    19    1
    12    19    20   ar
    13    20    21   ar
    14    21    22   ar
    15    22    23    1
    16    22    24   ar
    17    24    25   ar
    18     1    26    1
    19    26    27    1
    20    27    28   ar
    21    28    29   ar
    22    29    30   ar
    23    30    31   ar
    24    31    32   ar
    25    32    33    1
    26     5     6    1
    27     6     7    1
    28    11    12   ar
    29    12    13   ar
    30    13     9   ar
    31     7     2    1
    32    25    19   ar
    33    32    27   ar
    34     8    14    1
    35     8    15    1
    36    13    16    1
@<TRIPOS>MOLECULE
*****
 33 36 0 0 0
SMALL
GASTEIGER

@<TRIPOS>ATOM
      1 N         139.0655  142.6278  164.5243 N.3     1  UNL1       -0.2698
      2 N         140.5284  144.3939  160.6525 N.pl3   1  UNL1       -0.2769
      3 C         139.7668  145.2452  161.6247 C.3     1  UNL1        0.0950
      4 C         139.2792  144.6565  162.9152 C.3     1  UNL1        0.0375
      5 C         139.5532  143.2165  163.2336 C.3     1  UNL1        0.0612
      6 C         140.3148  142.3652  162.2614 C.3     1  UNL1        0.0375
      7 C         140.8024  142.9539  160.9709 C.3     1  UNL1        0.0950
      8 N         140.6480  146.8720  155.9914 N.pl3   1  UNL1       -0.3278
      9 C         141.0710  146.1216  157.2193 C.ar    1  UNL1        0.2099
     10 N         140.1775  145.7059  158.3501 N.ar    1  UNL1       -0.1804
     11 C         141.0161  144.9826  159.3618 C.ar    1  UNL1        0.2395
     12 N         142.4280  144.9513  158.8563 N.ar    1  UNL1       -0.1349
     13 N         142.4620  145.6552  157.5322 N.ar    1  UNL1       -0.2453
     14 H         139.7066  147.1360  155.8757 H       1  UNL1        0.1451
     15 H         141.3117  147.1004  155.3010 H       1  UNL1        0.1451
     16 H         143.2575  145.7879  156.9676 H       1  UNL1        0.1919
     17 C         139.6907  143.0449  165.8224 C.3     1  UNL1        0.0770
     18 C         141.1781  142.9634  165.9989 C.3     1  UNL1        0.0437
     19 C         141.8385  141.6305  166.1918 C.ar    1  UNL1       -0.0207
     20 C         142.1976  140.7921  165.0010 C.ar    1  UNL1       -0.0034
     21 C         142.8581  139.4592  165.1939 C.ar    1  UNL1        0.0111
     22 C         143.1595  138.9648  166.5776 C.ar    1  UNL1        0.0577
     23 CL        143.8199  137.6319  166.7705 Cl      1  UNL1       -0.0822
     24 C         142.8004  139.8032  167.7684 C.ar    1  UNL1        0.0111
     25 C         142.1399  141.1361  167.5755 C.ar    1  UNL1       -0.0034
     26 C         137.9526  141.6221  164.5167 C.3     1  UNL1        0.1001
     27 C         138.2290  140.2005  164.1263 C.ar    1  UNL1        0.0075
     28 C         138.0192  139.7577  162.7085 C.ar    1  UNL1        0.0186
     29 C         138.2957  138.3361  162.3181 C.ar    1  UNL1        0.0987
     30 N         138.7820  137.3572  163.3454 N.ar    1  UNL1       -0.2415
     31 C         138.9918  137.7999  164.7631 C.ar    1  UNL1        0.1099
     32 C         138.7153  139.2216  165.1536 C.ar    1  UNL1        0.0741
     33 CL        138.9251  139.6644  166.5713 Cl      1  UNL1       -0.0809
@<TRIPOS>BOND
     1     8     9    1
     2     9    10   ar
     3    10    11   ar
     4    11     2    1
     5     2     3    1
     6     3     4    1
     7     4     5    1
     8     5     1    1
     9     1    17    1
    10    17    18    1
    11    18    19    1
    12    19    20   ar
    13    20    21   ar
    14    21    22   ar
    15    22    23    1
    16    22    24   ar
    17    24    25   ar
    18     1    26    1
    19    26    27    1
    20    27    28   ar
    21    28    29   ar
    22    29    30   ar
    23    30    31   ar
    24    31    32   ar
    25    32    33    1
    26     5     6    1
    27     6     7    1
    28    11    12   ar
    29    12    13   ar
    30    13     9   ar
    31     7     2    1
    32    25    19   ar
    33    32    27   ar
    34     8    14    1
    35     8    15    1
    36    13    16    1
@<TRIPOS>MOLECULE
*****
 33 36 0 0 0
SMALL
GASTEIGER

@<TRIPOS>ATOM
      1 N         140.0779  140.2303  166.5710 N.3     1  UNL1       -0.2698
      2 N         140.7061  142.9266  163.0234 N.pl3   1  UNL1       -0.2769
      3 C         141.7439  141.9046  163.3817 C.3     1  UNL1        0.0950
      4 C         141.5345  141.0058  164.5643 C.3     1  UNL1        0.0375
      5 C         140.2873  141.1291  165.3884 C.3     1  UNL1        0.0612
      6 C         139.2495  142.1511  165.0301 C.3     1  UNL1        0.0375
      7 C         139.4589  143.0498  163.8476 C.3     1  UNL1        0.0950
      8 N         139.9722  145.4605  158.4494 N.pl3   1  UNL1       -0.3278
      9 C         140.5781  144.9901  159.7384 C.ar    1  UNL1        0.2099
     10 N         139.9715  144.0004  160.6883 N.ar    1  UNL1       -0.1804
     11 C         140.9155  143.8254  161.8408 C.ar    1  UNL1        0.2395
     12 N         142.1056  144.7069  161.6031 N.ar    1  UNL1       -0.1349
     13 N         141.8972  145.4267  160.3038 N.ar    1  UNL1       -0.2453
     14 H         139.0969  145.1138  158.1614 H       1  UNL1        0.1451
     15 H         140.4499  146.1160  157.8912 H       1  UNL1        0.1451
     16 H         142.5172  146.0724  159.8940 H       1  UNL1        0.1919
     17 C         138.8039  139.4498  166.7035 C.3     1  UNL1        0.0770
     18 C         138.5410  138.2837  165.7973 C.3     1  UNL1        0.0437
     19 C         139.2542  138.1804  164.4818 C.ar    1  UNL1       -0.0207
     20 C         138.6439  138.7779  163.2488 C.ar    1  UNL1       -0.0034
     21 C         139.3571  138.6746  161.9333 C.ar    1  UNL1        0.0111
     22 C         140.6808  137.9738  161.8508 C.ar    1  UNL1        0.0577
     23 CL        141.3941  137.8705  160.5353 Cl      1  UNL1       -0.0822
     24 C         141.2912  137.3763  163.0839 C.ar    1  UNL1        0.0111
     25 C         140.5779  137.4796  164.3994 C.ar    1  UNL1       -0.0034
     26 C         141.1426  140.1121  167.6210 C.3     1  UNL1        0.1001
     27 C         140.9653  140.7881  168.9482 C.ar    1  UNL1        0.0075
     28 C         140.1478  142.0418  169.0482 C.ar    1  UNL1        0.0186
     29 C         139.9706  142.7177  170.3755 C.ar    1  UNL1        0.0987
     30 N         140.6108  142.1400  171.6028 N.ar    1  UNL1       -0.2415
     31 C         141.4283  140.8863  171.5029 C.ar    1  UNL1        0.1099
     32 C         141.6056  140.2103  170.1756 C.ar    1  UNL1        0.0741
     33 CL        142.4231  138.9567  170.0756 Cl      1  UNL1       -0.0809
@<TRIPOS>BOND
     1     8     9    1
     2     9    10   ar
     3    10    11   ar
     4    11     2    1
     5     2     3    1
     6     3     4    1
     7     4     5    1
     8     5     1    1
     9     1    17    1
    10    17    18    1
    11    18    19    1
    12    19    20   ar
    13    20    21   ar
    14    21    22   ar
    15    22    23    1
    16    22    24   ar
    17    24    25   ar
    18     1    26    1
    19    26    27    1
    20    27    28   ar
    21    28    29   ar
    22    29    30   ar
    23    30    31   ar
    24    31    32   ar
    25    32    33    1
    26     5     6    1
    27     6     7    1
    28    11    12   ar
    29    12    13   ar
    30    13     9   ar
    31     7     2    1
    32    25    19   ar
    33    32    27   ar
    34     8    14    1
    35     8    15    1
    36    13    16    1
