@<TRIPOS>MOLECULE
*****
 38 43 0 0 0
SMALL
GASTEIGER

@<TRIPOS>ATOM
      1 O         143.5305  143.1341  165.2910 O.2     1  UNL1       -0.2526
      2 C         142.5569  142.6815  164.2435 C.2     1  UNL1        0.3040
      3 N         141.1332  142.3928  164.6174 N.am    1  UNL1       -0.2874
      4 N         143.0070  142.5176  162.8220 N.am    1  UNL1       -0.2642
      5 C         144.4306  142.8063  162.4482 C.3     1  UNL1        0.0954
      6 C         144.8807  142.6424  161.0267 C.3     1  UNL1        0.0309
      7 C         143.9072  142.1898  159.9792 C.3     1  UNL1        0.0827
      8 C         142.4835  141.9011  160.3530 C.3     1  UNL1        0.0309
      9 C         142.0334  142.0650  161.7745 C.3     1  UNL1        0.0954
     10 H         140.4942  142.0958  163.9298 H       1  UNL1        0.1510
     11 C         144.3573  142.0259  158.5577 C.ar    1  UNL1        0.2362
     12 N         145.6378  142.5442  157.9730 N.ar    1  UNL1       -0.1895
     13 C         145.6777  142.1535  156.5253 C.ar    1  UNL1        0.2210
     14 N         144.4220  141.3938  156.2153 N.ar    1  UNL1       -0.0544
     15 O         143.6059  141.3149  157.4713 O.2     1  UNL1       -0.3370
     16 C         146.7800  142.4674  155.5575 C.ar    1  UNL1        0.1202
     17 C         146.5558  143.4707  154.4652 C.ar    1  UNL1        0.0224
     18 C         147.6580  143.7846  153.4974 C.ar    1  UNL1        0.0031
     19 C         148.9845  143.0953  153.6220 C.ar    1  UNL1        0.0177
     20 C         150.0867  143.4092  152.6543 C.ar    1  UNL1        0.0015
     21 C         151.4130  142.7200  152.7789 C.ar    1  UNL1        0.0001
     22 C         151.6372  141.7167  153.8712 C.ar    1  UNL1        0.0015
     23 C         150.5350  141.4028  154.8390 C.ar    1  UNL1        0.0191
     24 C         149.2087  142.0920  154.7144 C.ar    1  UNL1        0.0814
     25 N         148.1064  141.7781  155.6821 N.ar    1  UNL1       -0.2422
     26 C         140.6830  142.5567  166.0389 C.3     1  UNL1        0.1054
     27 C         140.0442  141.4074  166.7605 C.3     1  UNL1        0.0636
     28 C         139.3848  141.2723  165.4201 C.3     1  UNL1        0.0164
     29 C         138.3925  140.1733  165.1796 C.3     1  UNL1        0.0014
     30 C         138.0597  139.2095  166.2798 C.3     1  UNL1        0.0001
     31 C         138.7191  139.3447  167.6203 C.3     1  UNL1        0.0014
     32 C         139.7113  140.4436  167.8606 C.3     1  UNL1        0.0164
     33 N         140.9255  141.9417  167.8504 N.3     1  UNL1       -0.2694
     34 C         142.3325  141.4409  167.9903 C.3     1  UNL1        0.1046
     35 C         143.2138  141.9752  169.0802 C.3     1  UNL1        0.1595
     36 O         142.6881  143.0102  170.0301 O.3     1  UNL1       -0.3508
     37 C         141.2811  143.5110  169.8902 C.3     1  UNL1        0.1595
     38 C         140.3998  142.9767  168.8003 C.3     1  UNL1        0.1046
@<TRIPOS>BOND
     1     1     2    2
     2     2     3   am
     3     3    26    1
     4    26    27    1
     5    27    33    1
     6    33    34    1
     7    34    35    1
     8    35    36    1
     9    36    37    1
    10    37    38    1
    11    27    28    1
    12    28    29    1
    13    29    30    1
    14    30    31    1
    15    31    32    1
    16     2     4   am
    17     4     5    1
    18     5     6    1
    19     6     7    1
    20     7    11    1
    21    11    12   ar
    22    12    13   ar
    23    13    16    1
    24    16    17   ar
    25    17    18   ar
    26    18    19   ar
    27    19    20   ar
    28    20    21   ar
    29    21    22   ar
    30    22    23   ar
    31    23    24   ar
    32    24    25   ar
    33    13    14   ar
    34    14    15   ar
    35     7     8    1
    36     8     9    1
    37    32    27    1
    38     9     4    1
    39    38    33    1
    40    15    11   ar
    41    25    16   ar
    42    24    19   ar
    43     3    10    1
@<TRIPOS>MOLECULE
*****
 38 43 0 0 0
SMALL
GASTEIGER

@<TRIPOS>ATOM
      1 O         142.2446  143.3690  164.9836 O.2     1  UNL1       -0.2526
      2 C         141.4028  142.5156  164.0819 C.2     1  UNL1        0.3040
      3 N         140.9023  141.1851  164.5605 N.am    1  UNL1       -0.2874
      4 N         141.0614  142.9929  162.7014 N.am    1  UNL1       -0.2642
      5 C         141.5619  144.3234  162.2227 C.3     1  UNL1        0.0954
      6 C         141.2206  144.8006  160.8422 C.3     1  UNL1        0.0309
      7 C         140.3787  143.9473  159.9405 C.3     1  UNL1        0.0827
      8 C         139.8782  142.6168  160.4191 C.3     1  UNL1        0.0309
      9 C         140.2196  142.1396  161.7996 C.3     1  UNL1        0.0954
     10 H         140.3497  140.6251  163.9687 H       1  UNL1        0.1510
     11 C         140.0374  144.4245  158.5600 C.ar    1  UNL1        0.2362
     12 N         140.2050  145.8230  158.0439 N.ar    1  UNL1       -0.1895
     13 C         139.7397  145.8498  156.6182 C.ar    1  UNL1        0.2210
     14 N         139.2845  144.4680  156.2530 N.ar    1  UNL1       -0.0544
     15 O         139.4685  143.5871  157.4531 O.2     1  UNL1       -0.3370
     16 C         139.7311  147.0482  155.7159 C.ar    1  UNL1        0.1202
     17 C         140.3710  146.9717  154.3614 C.ar    1  UNL1        0.0224
     18 C         140.3624  148.1700  153.4592 C.ar    1  UNL1        0.0031
     19 C         139.7140  149.4448  153.9115 C.ar    1  UNL1        0.0177
     20 C         139.7055  150.6431  153.0093 C.ar    1  UNL1        0.0015
     21 C         139.0571  151.9178  153.4616 C.ar    1  UNL1        0.0001
     22 C         138.4173  151.9943  154.8162 C.ar    1  UNL1        0.0015
     23 C         138.4258  150.7960  155.7184 C.ar    1  UNL1        0.0191
     24 C         139.0742  149.5213  155.2661 C.ar    1  UNL1        0.0814
     25 N         139.0828  148.3229  156.1683 N.ar    1  UNL1       -0.2422
     26 C         141.2436  140.7078  165.9411 C.3     1  UNL1        0.1054
     27 C         140.1611  140.2061  166.8502 C.3     1  UNL1        0.0636
     28 C         139.7382  139.5639  165.5623 C.3     1  UNL1        0.0164
     29 C         138.5102  138.7034  165.5211 C.3     1  UNL1        0.0014
     30 C         137.7051  138.4853  166.7679 C.3     1  UNL1        0.0001
     31 C         138.1281  139.1276  168.0558 C.3     1  UNL1        0.0014
     32 C         139.3561  139.9879  168.0969 C.3     1  UNL1        0.0164
     33 N         140.9600  141.0226  167.8224 N.3     1  UNL1       -0.2694
     34 C         142.2666  140.5016  168.3434 C.3     1  UNL1        0.1046
     35 C         143.0655  141.3182  169.3155 C.3     1  UNL1        0.1595
     36 O         142.5579  142.6556  169.7666 O.3     1  UNL1       -0.3508
     37 C         141.2513  143.1766  169.2456 C.3     1  UNL1        0.1595
     38 C         140.4524  142.3600  168.2734 C.3     1  UNL1        0.1046
@<TRIPOS>BOND
     1     1     2    2
     2     2     3   am
     3     3    26    1
     4    26    27    1
     5    27    33    1
     6    33    34    1
     7    34    35    1
     8    35    36    1
     9    36    37    1
    10    37    38    1
    11    27    28    1
    12    28    29    1
    13    29    30    1
    14    30    31    1
    15    31    32    1
    16     2     4   am
    17     4     5    1
    18     5     6    1
    19     6     7    1
    20     7    11    1
    21    11    12   ar
    22    12    13   ar
    23    13    16    1
    24    16    17   ar
    25    17    18   ar
    26    18    19   ar
    27    19    20   ar
    28    20    21   ar
    29    21    22   ar
    30    22    23   ar
    31    23    24   ar
    32    24    25   ar
    33    13    14   ar
    34    14    15   ar
    35     7     8    1
    36     8     9    1
    37    32    27    1
    38     9     4    1
    39    38    33    1
    40    15    11   ar
    41    25    16   ar
    42    24    19   ar
    43     3    10    1
@<TRIPOS>MOLECULE
*****
 38 43 0 0 0
SMALL
GASTEIGER

@<TRIPOS>ATOM
      1 O         142.3633  139.3712  164.8699 O.2     1  UNL1       -0.2526
      2 C         141.3814  139.4496  163.7386 C.2     1  UNL1        0.3040
      3 N         140.0328  140.0688  163.9576 N.am    1  UNL1       -0.2874
      4 N         141.7480  138.9088  162.3884 N.am    1  UNL1       -0.2642
      5 C         143.0966  138.2897  162.1695 C.3     1  UNL1        0.0954
      6 C         143.4633  137.7489  160.8193 C.3     1  UNL1        0.0309
      7 C         142.4814  137.8273  159.6880 C.3     1  UNL1        0.0827
      8 C         141.1328  138.4465  159.9070 C.3     1  UNL1        0.0309
      9 C         140.7661  138.9872  161.2572 C.3     1  UNL1        0.0954
     10 H         139.3884  140.1202  163.2151 H       1  UNL1        0.1510
     11 C         142.8480  137.2865  158.3378 C.ar    1  UNL1        0.2362
     12 N         142.6838  135.8667  157.8823 N.ar    1  UNL1       -0.1895
     13 C         143.1776  135.7734  156.4690 C.ar    1  UNL1        0.2210
     14 N         143.6470  137.1353  156.0510 N.ar    1  UNL1       -0.0544
     15 O         143.4433  138.0705  157.2059 O.2     1  UNL1       -0.3370
     16 C         143.1983  134.5353  155.6223 C.ar    1  UNL1        0.1202
     17 C         142.4715  134.5116  154.3104 C.ar    1  UNL1        0.0224
     18 C         142.4922  133.2736  153.4637 C.ar    1  UNL1        0.0031
     19 C         143.2398  132.0592  153.9290 C.ar    1  UNL1        0.0177
     20 C         143.2605  130.8212  153.0823 C.ar    1  UNL1        0.0015
     21 C         144.0080  129.6069  153.5476 C.ar    1  UNL1        0.0001
     22 C         144.7348  129.6305  154.8595 C.ar    1  UNL1        0.0015
     23 C         144.7141  130.8685  155.7062 C.ar    1  UNL1        0.0191
     24 C         143.9666  132.0829  155.2409 C.ar    1  UNL1        0.0814
     25 N         143.9459  133.3210  156.0876 N.ar    1  UNL1       -0.2422
     26 C         139.6661  140.6096  165.3079 C.3     1  UNL1        0.1054
     27 C         139.5237  142.0891  165.5099 C.3     1  UNL1        0.0636
     28 C         138.5127  141.8760  164.4224 C.3     1  UNL1        0.0164
     29 C         137.7275  143.0381  163.8902 C.3     1  UNL1        0.0014
     30 C         137.9534  144.4131  164.4455 C.3     1  UNL1        0.0001
     31 C         138.9644  144.6261  165.5329 C.3     1  UNL1        0.0014
     32 C         139.7495  143.4641  166.0651 C.3     1  UNL1        0.0164
     33 N         140.5842  141.7882  166.5272 N.3     1  UNL1       -0.2694
     34 C         141.9261  142.4515  166.4302 C.3     1  UNL1        0.1046
     35 C         142.9866  142.1506  167.4475 C.3     1  UNL1        0.1595
     36 O         142.7051  141.1866  168.5617 O.3     1  UNL1       -0.3508
     37 C         141.3632  140.5234  168.6586 C.3     1  UNL1        0.1595
     38 C         140.3027  140.8242  167.6413 C.3     1  UNL1        0.1046
@<TRIPOS>BOND
     1     1     2    2
     2     2     3   am
     3     3    26    1
     4    26    27    1
     5    27    33    1
     6    33    34    1
     7    34    35    1
     8    35    36    1
     9    36    37    1
    10    37    38    1
    11    27    28    1
    12    28    29    1
    13    29    30    1
    14    30    31    1
    15    31    32    1
    16     2     4   am
    17     4     5    1
    18     5     6    1
    19     6     7    1
    20     7    11    1
    21    11    12   ar
    22    12    13   ar
    23    13    16    1
    24    16    17   ar
    25    17    18   ar
    26    18    19   ar
    27    19    20   ar
    28    20    21   ar
    29    21    22   ar
    30    22    23   ar
    31    23    24   ar
    32    24    25   ar
    33    13    14   ar
    34    14    15   ar
    35     7     8    1
    36     8     9    1
    37    32    27    1
    38     9     4    1
    39    38    33    1
    40    15    11   ar
    41    25    16   ar
    42    24    19   ar
    43     3    10    1
@<TRIPOS>MOLECULE
*****
 38 43 0 0 0
SMALL
GASTEIGER

@<TRIPOS>ATOM
      1 O         142.9241  143.8093  160.6151 O.2     1  UNL1       -0.2526
      2 C         142.6660  142.4176  161.1115 C.2     1  UNL1        0.3040
      3 N         142.3487  142.1842  162.5588 N.am    1  UNL1       -0.2874
      4 N         142.7252  141.2591  160.1605 N.am    1  UNL1       -0.2642
      5 C         143.0425  141.4924  158.7131 C.3     1  UNL1        0.0954
      6 C         143.1017  140.3340  157.7621 C.3     1  UNL1        0.0309
      7 C         142.8436  138.9422  158.2584 C.3     1  UNL1        0.0827
      8 C         142.5262  138.7089  159.7058 C.3     1  UNL1        0.0309
      9 C         142.4670  139.8673  160.6568 C.3     1  UNL1        0.0954
     10 H         142.1792  141.2708  162.8846 H       1  UNL1        0.1510
     11 C         142.9028  137.7837  157.3074 C.ar    1  UNL1        0.2362
     12 N         142.7508  136.3362  157.6705 N.ar    1  UNL1       -0.1895
     13 C         142.8785  135.5273  156.4138 C.ar    1  UNL1        0.2210
     14 N         143.1092  136.4747  155.2741 N.ar    1  UNL1       -0.0544
     15 O         143.1243  137.8693  155.8263 O.2     1  UNL1       -0.3370
     16 C         142.7907  134.0331  156.3144 C.ar    1  UNL1        0.1202
     17 C         141.7688  133.3999  155.4173 C.ar    1  UNL1        0.0224
     18 C         141.6810  131.9058  155.3179 C.ar    1  UNL1        0.0031
     19 C         142.6151  131.0448  156.1155 C.ar    1  UNL1        0.0177
     20 C         142.5273  129.5507  156.0161 C.ar    1  UNL1        0.0015
     21 C         143.4615  128.6899  156.8136 C.ar    1  UNL1        0.0001
     22 C         144.4834  129.3231  157.7107 C.ar    1  UNL1        0.0015
     23 C         144.5712  130.8171  157.8101 C.ar    1  UNL1        0.0191
     24 C         143.6371  131.6780  157.0125 C.ar    1  UNL1        0.0814
     25 N         143.7249  133.1722  157.1120 N.ar    1  UNL1       -0.2422
     26 C         142.2895  143.3427  163.5099 C.3     1  UNL1        0.1054
     27 C         141.4852  143.2369  164.7716 C.3     1  UNL1        0.0636
     28 C         142.7625  142.5921  165.2220 C.3     1  UNL1        0.0164
     29 C         142.8890  142.0781  166.6255 C.3     1  UNL1        0.0014
     30 C         141.7381  142.2090  167.5787 C.3     1  UNL1        0.0001
     31 C         140.4608  142.8539  167.1283 C.3     1  UNL1        0.0014
     32 C         140.3344  143.3678  165.7248 C.3     1  UNL1        0.0164
     33 N         140.4873  143.9185  163.8831 N.3     1  UNL1       -0.2694
     34 C         139.1134  143.3400  163.7163 C.3     1  UNL1        0.1046
     35 C         138.1154  144.0216  162.8278 C.3     1  UNL1        0.1595
     36 O         138.4914  145.2816  162.1060 O.3     1  UNL1       -0.3508
     37 C         139.8652  145.8602  162.2728 C.3     1  UNL1        0.1595
     38 C         140.8632  145.1786  163.1614 C.3     1  UNL1        0.1046
@<TRIPOS>BOND
     1     1     2    2
     2     2     3   am
     3     3    26    1
     4    26    27    1
     5    27    33    1
     6    33    34    1
     7    34    35    1
     8    35    36    1
     9    36    37    1
    10    37    38    1
    11    27    28    1
    12    28    29    1
    13    29    30    1
    14    30    31    1
    15    31    32    1
    16     2     4   am
    17     4     5    1
    18     5     6    1
    19     6     7    1
    20     7    11    1
    21    11    12   ar
    22    12    13   ar
    23    13    16    1
    24    16    17   ar
    25    17    18   ar
    26    18    19   ar
    27    19    20   ar
    28    20    21   ar
    29    21    22   ar
    30    22    23   ar
    31    23    24   ar
    32    24    25   ar
    33    13    14   ar
    34    14    15   ar
    35     7     8    1
    36     8     9    1
    37    32    27    1
    38     9     4    1
    39    38    33    1
    40    15    11   ar
    41    25    16   ar
    42    24    19   ar
    43     3    10    1
@<TRIPOS>MOLECULE
*****
 38 43 0 0 0
SMALL
GASTEIGER

@<TRIPOS>ATOM
      1 O         139.0754  142.2883  161.2494 O.2     1  UNL1       -0.2526
      2 C         139.7132  140.9904  161.6477 C.2     1  UNL1        0.3040
      3 N         139.6346  140.5215  163.0703 N.am    1  UNL1       -0.2874
      4 N         140.4297  140.1614  160.6233 N.am    1  UNL1       -0.2642
      5 C         140.5083  140.6303  159.2007 C.3     1  UNL1        0.0954
      6 C         141.2248  139.8013  158.1763 C.3     1  UNL1        0.0309
      7 C         141.8626  138.5033  158.5746 C.3     1  UNL1        0.0827
      8 C         141.7840  138.0344  159.9972 C.3     1  UNL1        0.0309
      9 C         141.0675  138.8635  161.0216 C.3     1  UNL1        0.0954
     10 H         140.0532  139.6696  163.3317 H       1  UNL1        0.1510
     11 C         142.5791  137.6743  157.5502 C.ar    1  UNL1        0.2362
     12 N         142.2450  136.2628  157.1678 N.ar    1  UNL1       -0.1895
     13 C         143.2149  135.8274  156.1096 C.ar    1  UNL1        0.2210
     14 N         144.1483  136.9697  155.8380 N.ar    1  UNL1       -0.0544
     15 O         143.7554  138.1112  156.7283 O.2     1  UNL1       -0.3370
     16 C         143.2459  134.4852  155.4405 C.ar    1  UNL1        0.1202
     17 C         142.4832  134.2638  154.1680 C.ar    1  UNL1        0.0224
     18 C         142.5142  132.9217  153.4989 C.ar    1  UNL1        0.0031
     19 C         143.3078  131.8009  154.1023 C.ar    1  UNL1        0.0177
     20 C         143.3387  130.4588  153.4332 C.ar    1  UNL1        0.0015
     21 C         144.1323  129.3381  154.0367 C.ar    1  UNL1        0.0001
     22 C         144.8950  129.5595  155.3092 C.ar    1  UNL1        0.0015
     23 C         144.8640  130.9016  155.9783 C.ar    1  UNL1        0.0191
     24 C         144.0704  132.0223  155.3748 C.ar    1  UNL1        0.0814
     25 N         144.0395  133.3645  156.0439 N.ar    1  UNL1       -0.2422
     26 C         138.9181  141.3505  164.0948 C.3     1  UNL1        0.1054
     27 C         139.4604  141.4528  165.4896 C.3     1  UNL1        0.0636
     28 C         138.7096  140.1586  165.5962 C.3     1  UNL1        0.0164
     29 C         138.6964  139.4037  166.8924 C.3     1  UNL1        0.0014
     30 C         139.4341  139.9431  168.0819 C.3     1  UNL1        0.0001
     31 C         140.1849  141.2373  167.9752 C.3     1  UNL1        0.0014
     32 C         140.1980  141.9921  166.6791 C.3     1  UNL1        0.0164
     33 N         140.0229  142.7115  164.8986 N.3     1  UNL1       -0.2694
     34 C         141.5084  142.9020  164.8146 C.3     1  UNL1        0.1046
     35 C         142.0708  144.1607  164.2236 C.3     1  UNL1        0.1595
     36 O         141.1478  145.2288  163.7165 O.3     1  UNL1       -0.3508
     37 C         139.6623  145.0382  163.8004 C.3     1  UNL1        0.1595
     38 C         139.0999  143.7796  164.3915 C.3     1  UNL1        0.1046
@<TRIPOS>BOND
     1     1     2    2
     2     2     3   am
     3     3    26    1
     4    26    27    1
     5    27    33    1
     6    33    34    1
     7    34    35    1
     8    35    36    1
     9    36    37    1
    10    37    38    1
    11    27    28    1
    12    28    29    1
    13    29    30    1
    14    30    31    1
    15    31    32    1
    16     2     4   am
    17     4     5    1
    18     5     6    1
    19     6     7    1
    20     7    11    1
    21    11    12   ar
    22    12    13   ar
    23    13    16    1
    24    16    17   ar
    25    17    18   ar
    26    18    19   ar
    27    19    20   ar
    28    20    21   ar
    29    21    22   ar
    30    22    23   ar
    31    23    24   ar
    32    24    25   ar
    33    13    14   ar
    34    14    15   ar
    35     7     8    1
    36     8     9    1
    37    32    27    1
    38     9     4    1
    39    38    33    1
    40    15    11   ar
    41    25    16   ar
    42    24    19   ar
    43     3    10    1
@<TRIPOS>MOLECULE
*****
 38 43 0 0 0
SMALL
GASTEIGER

@<TRIPOS>ATOM
      1 O         142.4565  143.5744  160.7263 O.2     1  UNL1       -0.2526
      2 C         142.2104  142.1907  161.2506 C.2     1  UNL1        0.3040
      3 N         141.9740  141.9750  162.7160 N.am    1  UNL1       -0.2874
      4 N         142.2009  141.0228  160.3094 N.am    1  UNL1       -0.2642
      5 C         142.4373  141.2385  158.8440 C.3     1  UNL1        0.0954
      6 C         142.4278  140.0706  157.9028 C.3     1  UNL1        0.0309
      7 C         142.1817  138.6869  158.4271 C.3     1  UNL1        0.0827
      8 C         141.9452  138.4711  159.8926 C.3     1  UNL1        0.0309
      9 C         141.9548  139.6391  160.8337 C.3     1  UNL1        0.0954
     10 H         141.8124  141.0668  163.0601 H       1  UNL1        0.1510
     11 C         142.1721  137.5190  157.4860 C.ar    1  UNL1        0.2362
     12 N         142.9747  136.2603  157.6344 N.ar    1  UNL1       -0.1895
     13 C         142.6568  135.3681  156.4713 C.ar    1  UNL1        0.2210
     14 N         141.6579  136.0752  155.6040 N.ar    1  UNL1       -0.0544
     15 O         141.3583  137.4044  156.2311 O.2     1  UNL1       -0.3370
     16 C         143.2362  134.0075  156.2197 C.ar    1  UNL1        0.1202
     17 C         144.0721  133.3420  157.2724 C.ar    1  UNL1        0.0224
     18 C         144.6515  131.9815  157.0209 C.ar    1  UNL1        0.0031
     19 C         144.3951  131.2865  155.7165 C.ar    1  UNL1        0.0177
     20 C         144.9745  129.9261  155.4649 C.ar    1  UNL1        0.0015
     21 C         144.7181  129.2312  154.1606 C.ar    1  UNL1        0.0001
     22 C         143.8822  129.8967  153.1079 C.ar    1  UNL1        0.0015
     23 C         143.3028  131.2572  153.3594 C.ar    1  UNL1        0.0191
     24 C         143.5592  131.9521  154.6637 C.ar    1  UNL1        0.0814
     25 N         142.9798  133.3127  154.9154 N.ar    1  UNL1       -0.2422
     26 C         141.9835  143.1430  163.6572 C.3     1  UNL1        0.1054
     27 C         141.2836  143.0457  164.9804 C.3     1  UNL1        0.0636
     28 C         142.6319  142.5082  165.3587 C.3     1  UNL1        0.0164
     29 C         142.8965  142.0717  166.7692 C.3     1  UNL1        0.0014
     30 C         141.8128  142.1729  167.8014 C.3     1  UNL1        0.0001
     31 C         140.4645  142.7105  167.4230 C.3     1  UNL1        0.0014
     32 C         140.1999  143.1468  166.0125 C.3     1  UNL1        0.0164
     33 N         140.1784  143.6171  164.1425 N.3     1  UNL1       -0.2694
     34 C         138.8578  142.9105  164.0601 C.3     1  UNL1        0.1046
     35 C         137.7525  143.4819  163.2222 C.3     1  UNL1        0.1595
     36 O         137.9680  144.7597  162.4668 O.3     1  UNL1       -0.3508
     37 C         139.2886  145.4662  162.5491 C.3     1  UNL1        0.1595
     38 C         140.3938  144.8948  163.3870 C.3     1  UNL1        0.1046
@<TRIPOS>BOND
     1     1     2    2
     2     2     3   am
     3     3    26    1
     4    26    27    1
     5    27    33    1
     6    33    34    1
     7    34    35    1
     8    35    36    1
     9    36    37    1
    10    37    38    1
    11    27    28    1
    12    28    29    1
    13    29    30    1
    14    30    31    1
    15    31    32    1
    16     2     4   am
    17     4     5    1
    18     5     6    1
    19     6     7    1
    20     7    11    1
    21    11    12   ar
    22    12    13   ar
    23    13    16    1
    24    16    17   ar
    25    17    18   ar
    26    18    19   ar
    27    19    20   ar
    28    20    21   ar
    29    21    22   ar
    30    22    23   ar
    31    23    24   ar
    32    24    25   ar
    33    13    14   ar
    34    14    15   ar
    35     7     8    1
    36     8     9    1
    37    32    27    1
    38     9     4    1
    39    38    33    1
    40    15    11   ar
    41    25    16   ar
    42    24    19   ar
    43     3    10    1
@<TRIPOS>MOLECULE
*****
 38 43 0 0 0
SMALL
GASTEIGER

@<TRIPOS>ATOM
      1 O         138.7977  141.0014  163.3291 O.2     1  UNL1       -0.2526
      2 C         139.9291  141.8952  162.9152 C.2     1  UNL1        0.3040
      3 N         141.0626  142.1575  163.8619 N.am    1  UNL1       -0.2874
      4 N         139.9269  142.5265  161.5545 N.am    1  UNL1       -0.2642
      5 C         138.7933  142.2641  160.6078 C.3     1  UNL1        0.0954
      6 C         138.7912  142.8955  159.2472 C.3     1  UNL1        0.0309
      7 C         139.9225  143.7892  158.8332 C.3     1  UNL1        0.0827
      8 C         141.0561  144.0515  159.7799 C.3     1  UNL1        0.0309
      9 C         141.0583  143.4202  161.1406 C.3     1  UNL1        0.0954
     10 H         141.8051  142.7441  163.5902 H       1  UNL1        0.1510
     11 C         139.9204  144.4205  157.4726 C.ar    1  UNL1        0.2362
     12 N         139.8761  145.8918  157.1833 N.ar    1  UNL1       -0.1895
     13 C         139.8904  146.0719  155.6942 C.ar    1  UNL1        0.2210
     14 N         139.9436  144.7122  155.0632 N.ar    1  UNL1       -0.0544
     15 O         139.9621  143.6915  156.1623 O.2     1  UNL1       -0.3370
     16 C         139.8574  147.3820  154.9643 C.ar    1  UNL1        0.1202
     17 C         140.4817  147.4994  153.6055 C.ar    1  UNL1        0.0224
     18 C         140.4487  148.8094  152.8756 C.ar    1  UNL1        0.0031
     19 C         139.7915  150.0021  153.5046 C.ar    1  UNL1        0.0177
     20 C         139.7585  151.3121  152.7747 C.ar    1  UNL1        0.0015
     21 C         139.1013  152.5047  153.4037 C.ar    1  UNL1        0.0001
     22 C         138.4770  152.3873  154.7625 C.ar    1  UNL1        0.0015
     23 C         138.5100  151.0774  155.4924 C.ar    1  UNL1        0.0191
     24 C         139.1672  149.8847  154.8634 C.ar    1  UNL1        0.0814
     25 N         139.2002  148.5746  155.5933 N.ar    1  UNL1       -0.2422
     26 C         141.0648  141.5262  165.2226 C.3     1  UNL1        0.1054
     27 C         141.9605  140.3566  165.5053 C.3     1  UNL1        0.0636
     28 C         142.8239  141.1199  164.5451 C.3     1  UNL1        0.0164
     29 C         144.1752  140.5897  164.1670 C.3     1  UNL1        0.0014
     30 C         144.6630  139.2961  164.7490 C.3     1  UNL1        0.0001
     31 C         143.7995  138.5328  165.7092 C.3     1  UNL1        0.0014
     32 C         142.4483  139.0631  166.0873 C.3     1  UNL1        0.0164
     33 N         140.7860  139.9995  166.3673 N.3     1  UNL1       -0.2694
     34 C         140.7232  140.4815  167.7864 C.3     1  UNL1        0.1046
     35 C         139.5487  140.1244  168.6484 C.3     1  UNL1        0.1595
     36 O         138.4371  139.2854  168.0913 O.3     1  UNL1       -0.3508
     37 C         138.4999  138.8034  166.6722 C.3     1  UNL1        0.1595
     38 C         139.6744  139.1605  165.8102 C.3     1  UNL1        0.1046
@<TRIPOS>BOND
     1     1     2    2
     2     2     3   am
     3     3    26    1
     4    26    27    1
     5    27    33    1
     6    33    34    1
     7    34    35    1
     8    35    36    1
     9    36    37    1
    10    37    38    1
    11    27    28    1
    12    28    29    1
    13    29    30    1
    14    30    31    1
    15    31    32    1
    16     2     4   am
    17     4     5    1
    18     5     6    1
    19     6     7    1
    20     7    11    1
    21    11    12   ar
    22    12    13   ar
    23    13    16    1
    24    16    17   ar
    25    17    18   ar
    26    18    19   ar
    27    19    20   ar
    28    20    21   ar
    29    21    22   ar
    30    22    23   ar
    31    23    24   ar
    32    24    25   ar
    33    13    14   ar
    34    14    15   ar
    35     7     8    1
    36     8     9    1
    37    32    27    1
    38     9     4    1
    39    38    33    1
    40    15    11   ar
    41    25    16   ar
    42    24    19   ar
    43     3    10    1
@<TRIPOS>MOLECULE
*****
 38 43 0 0 0
SMALL
GASTEIGER

@<TRIPOS>ATOM
      1 O         138.5265  140.1468  164.5185 O.2     1  UNL1       -0.2526
      2 C         139.4593  141.2665  164.1634 C.2     1  UNL1        0.3040
      3 N         140.3838  141.8303  165.2014 N.am    1  UNL1       -0.2874
      4 N         139.4676  141.8224  162.7703 N.am    1  UNL1       -0.2642
      5 C         138.5431  141.2587  161.7323 C.3     1  UNL1        0.0954
      6 C         138.5514  141.8146  160.3391 C.3     1  UNL1        0.0309
      7 C         139.4842  142.9343  159.9840 C.3     1  UNL1        0.0827
      8 C         140.4087  143.4981  161.0220 C.3     1  UNL1        0.0309
      9 C         140.4004  142.9422  162.4151 C.3     1  UNL1        0.0954
     10 H         140.9960  142.5652  164.9683 H       1  UNL1        0.1510
     11 C         139.4926  143.4903  158.5909 C.ar    1  UNL1        0.2362
     12 N         139.5908  144.9407  158.2209 N.ar    1  UNL1       -0.1895
     13 C         139.5631  145.0402  156.7245 C.ar    1  UNL1        0.2210
     14 N         139.4477  143.6514  156.1696 N.ar    1  UNL1       -0.0544
     15 O         139.4041  142.6935  157.3230 O.2     1  UNL1       -0.3370
     16 C         139.6376  146.3064  155.9236 C.ar    1  UNL1        0.1202
     17 C         140.3679  146.3231  154.6134 C.ar    1  UNL1        0.0224
     18 C         140.4424  147.5892  153.8125 C.ar    1  UNL1        0.0031
     19 C         139.7867  148.8386  154.3217 C.ar    1  UNL1        0.0177
     20 C         139.8613  150.1046  153.5208 C.ar    1  UNL1        0.0015
     21 C         139.2056  151.3539  154.0301 C.ar    1  UNL1        0.0001
     22 C         138.4754  151.3371  155.3402 C.ar    1  UNL1        0.0015
     23 C         138.4008  150.0710  156.1411 C.ar    1  UNL1        0.0191
     24 C         139.0565  148.8218  155.6319 C.ar    1  UNL1        0.0814
     25 N         138.9819  147.5556  156.4328 N.ar    1  UNL1       -0.2422
     26 C         140.3755  141.2743  166.5946 C.3     1  UNL1        0.1054
     27 C         141.4787  141.6249  167.5486 C.3     1  UNL1        0.0636
     28 C         140.3501  142.4024  168.1583 C.3     1  UNL1        0.0164
     29 C         140.5836  143.2182  169.3952 C.3     1  UNL1        0.0014
     30 C         141.9457  143.2565  170.0224 C.3     1  UNL1        0.0001
     31 C         143.0742  142.4789  169.4126 C.3     1  UNL1        0.0014
     32 C         142.8407  141.6631  168.1757 C.3     1  UNL1        0.0164
     33 N         142.2241  140.7256  166.6075 N.3     1  UNL1       -0.2694
     34 C         141.8693  139.2706  166.5214 C.3     1  UNL1        0.1046
     35 C         142.6147  138.3713  165.5803 C.3     1  UNL1        0.1595
     36 O         143.7149  138.9269  164.7254 O.3     1  UNL1       -0.3508
     37 C         144.0697  140.3819  164.8115 C.3     1  UNL1        0.1595
     38 C         143.3243  141.2812  165.7526 C.3     1  UNL1        0.1046
@<TRIPOS>BOND
     1     1     2    2
     2     2     3   am
     3     3    26    1
     4    26    27    1
     5    27    33    1
     6    33    34    1
     7    34    35    1
     8    35    36    1
     9    36    37    1
    10    37    38    1
    11    27    28    1
    12    28    29    1
    13    29    30    1
    14    30    31    1
    15    31    32    1
    16     2     4   am
    17     4     5    1
    18     5     6    1
    19     6     7    1
    20     7    11    1
    21    11    12   ar
    22    12    13   ar
    23    13    16    1
    24    16    17   ar
    25    17    18   ar
    26    18    19   ar
    27    19    20   ar
    28    20    21   ar
    29    21    22   ar
    30    22    23   ar
    31    23    24   ar
    32    24    25   ar
    33    13    14   ar
    34    14    15   ar
    35     7     8    1
    36     8     9    1
    37    32    27    1
    38     9     4    1
    39    38    33    1
    40    15    11   ar
    41    25    16   ar
    42    24    19   ar
    43     3    10    1
@<TRIPOS>MOLECULE
*****
 38 43 0 0 0
SMALL
GASTEIGER

@<TRIPOS>ATOM
      1 O         143.3524  141.5561  162.2176 O.2     1  UNL1       -0.2526
      2 C         142.1687  141.6776  161.3043 C.2     1  UNL1        0.3040
      3 N         141.2230  142.8326  161.4518 N.am    1  UNL1       -0.2874
      4 N         141.9307  140.6442  160.2435 N.am    1  UNL1       -0.2642
      5 C         142.8764  139.4893  160.0960 C.3     1  UNL1        0.0954
      6 C         142.6384  138.4559  159.0351 C.3     1  UNL1        0.0309
      7 C         141.4548  138.5774  158.1218 C.3     1  UNL1        0.0827
      8 C         140.5091  139.7324  158.2693 C.3     1  UNL1        0.0309
      9 C         140.7471  140.7658  159.3301 C.3     1  UNL1        0.0954
     10 H         140.4462  142.9123  160.8524 H       1  UNL1        0.1510
     11 C         141.2168  137.5440  157.0609 C.ar    1  UNL1        0.2362
     12 N         142.0885  136.3573  156.7747 N.ar    1  UNL1       -0.1895
     13 C         141.4757  135.5958  155.6369 C.ar    1  UNL1        0.2210
     14 N         140.2253  136.3117  155.2200 N.ar    1  UNL1       -0.0544
     15 O         140.0652  137.5158  156.1000 O.2     1  UNL1       -0.3370
     16 C         142.0182  134.3388  155.0237 C.ar    1  UNL1        0.1202
     17 C         141.6189  133.9510  153.6308 C.ar    1  UNL1        0.0224
     18 C         142.1613  132.6941  153.0176 C.ar    1  UNL1        0.0031
     19 C         143.1031  131.8250  153.7973 C.ar    1  UNL1        0.0177
     20 C         143.6455  130.5682  153.1841 C.ar    1  UNL1        0.0015
     21 C         144.5872  129.6992  153.9638 C.ar    1  UNL1        0.0001
     22 C         144.9865  130.0870  155.3567 C.ar    1  UNL1        0.0015
     23 C         144.4441  131.3439  155.9699 C.ar    1  UNL1        0.0191
     24 C         143.5024  132.2129  155.1902 C.ar    1  UNL1        0.0814
     25 N         142.9599  133.4698  155.8034 N.ar    1  UNL1       -0.2422
     26 C         141.4610  143.8661  162.5127 C.3     1  UNL1        0.1054
     27 C         140.5580  143.9352  163.7084 C.3     1  UNL1        0.0636
     28 C         139.5512  144.1132  162.6109 C.3     1  UNL1        0.0164
     29 C         138.0998  144.2902  162.9460 C.3     1  UNL1        0.0014
     30 C         137.6553  144.2892  164.3787 C.3     1  UNL1        0.0001
     31 C         138.6623  144.1111  165.4762 C.3     1  UNL1        0.0014
     32 C         140.1135  143.9341  165.1410 C.3     1  UNL1        0.0164
     33 N         141.8785  143.7331  164.3907 N.3     1  UNL1       -0.2694
     34 C         142.0316  142.6571  165.4246 C.3     1  UNL1        0.1046
     35 C         143.3521  142.4551  166.1068 C.3     1  UNL1        0.1595
     36 O         144.5194  143.3289  165.7551 O.3     1  UNL1       -0.3508
     37 C         144.3663  144.4048  164.7212 C.3     1  UNL1        0.1595
     38 C         143.0458  144.6069  164.0390 C.3     1  UNL1        0.1046
@<TRIPOS>BOND
     1     1     2    2
     2     2     3   am
     3     3    26    1
     4    26    27    1
     5    27    33    1
     6    33    34    1
     7    34    35    1
     8    35    36    1
     9    36    37    1
    10    37    38    1
    11    27    28    1
    12    28    29    1
    13    29    30    1
    14    30    31    1
    15    31    32    1
    16     2     4   am
    17     4     5    1
    18     5     6    1
    19     6     7    1
    20     7    11    1
    21    11    12   ar
    22    12    13   ar
    23    13    16    1
    24    16    17   ar
    25    17    18   ar
    26    18    19   ar
    27    19    20   ar
    28    20    21   ar
    29    21    22   ar
    30    22    23   ar
    31    23    24   ar
    32    24    25   ar
    33    13    14   ar
    34    14    15   ar
    35     7     8    1
    36     8     9    1
    37    32    27    1
    38     9     4    1
    39    38    33    1
    40    15    11   ar
    41    25    16   ar
    42    24    19   ar
    43     3    10    1
