@<TRIPOS>MOLECULE
*****
 31 33 0 0 0
SMALL
GASTEIGER

@<TRIPOS>ATOM
      1 S         143.3702  138.8215  163.9307 S.O2    1  UNL1        0.0768
      2 O         144.5378  139.7596  163.8486 O.2     1  UNL1       -0.1498
      3 O         142.2026  137.8835  164.0128 O.2     1  UNL1       -0.1498
      4 O         141.5036  140.5063  165.5670 O.2     1  UNL1       -0.2509
      5 C         142.5426  139.6633  166.2451 C.2     1  UNL1        0.3232
      6 N         142.6483  139.6627  167.7414 N.am    1  UNL1       -0.2663
      7 N         143.4759  138.8210  165.4270 N.am    1  UNL1       -0.1690
      8 H         143.3302  139.1095  168.1864 H       1  UNL1        0.1565
      9 H         144.1579  138.2677  165.8720 H       1  UNL1        0.1781
     10 C         141.7149  140.5051  168.5595 C.ar    1  UNL1        0.0630
     11 C         140.4008  139.9429  169.0143 C.ar    1  UNL1        0.0270
     12 C         139.4675  140.7853  169.8325 C.ar    1  UNL1        0.0590
     13 CL        138.1533  140.2231  170.2873 Cl      1  UNL1       -0.0822
     14 C         139.8484  142.1899  170.1958 C.ar    1  UNL1        0.0123
     15 C         141.1626  142.7521  169.7410 C.ar    1  UNL1        0.0135
     16 C         142.0958  141.9097  168.9229 C.ar    1  UNL1        0.0712
     17 CL        143.4100  142.4720  168.4680 Cl      1  UNL1       -0.0810
     18 C         143.2645  138.8221  162.4345 C.ar    1  UNL1        0.1255
     19 C         142.3160  137.8836  161.7492 C.ar    1  UNL1        0.0233
     20 C         142.2104  137.8842  160.2529 C.ar    1  UNL1        0.0383
     21 C         143.0531  138.8233  159.4419 C.ar    1  UNL1        0.1387
     22 C         144.0016  139.7619  160.1272 C.ar    1  UNL1        0.0383
     23 C         144.1073  139.7613  161.6234 C.ar    1  UNL1        0.0233
     24 O         142.9474  138.8239  157.9457 O.3     1  UNL1       -0.4740
     25 C         142.3584  137.6416  157.2349 C.3     1  UNL1        0.2226
     26 C         143.2496  136.6984  156.4825 C.3     1  UNL1        0.1200
     27 N         142.9083  135.2394  156.4120 N.3     1  UNL1       -0.2696
     28 C         141.8470  134.6229  155.5497 C.3     1  UNL1        0.0722
     29 C         141.8512  133.1433  155.7962 C.3     1  UNL1        0.0188
     30 C         142.9151  132.8453  156.8108 C.3     1  UNL1        0.0188
     31 C         143.5684  134.1408  157.1913 C.3     1  UNL1        0.0722
@<TRIPOS>BOND
     1     4     5    2
     2     5     6   am
     3     6    10    1
     4    10    11   ar
     5    11    12   ar
     6    12    13    1
     7    12    14   ar
     8    14    15   ar
     9    15    16   ar
    10    16    17    1
    11     5     7   am
    12     7     1    1
    13     1     2    2
    14     1     3    2
    15     1    18    1
    16    18    19   ar
    17    19    20   ar
    18    20    21   ar
    19    21    24    1
    20    24    25    1
    21    25    26    1
    22    26    27    1
    23    27    28    1
    24    28    29    1
    25    29    30    1
    26    30    31    1
    27    21    22   ar
    28    22    23   ar
    29    16    10   ar
    30    23    18   ar
    31    31    27    1
    32     6     8    1
    33     7     9    1
@<TRIPOS>MOLECULE
*****
 31 33 0 0 0
SMALL
GASTEIGER

@<TRIPOS>ATOM
      1 S         143.5957  139.0152  163.9273 S.O2    1  UNL1        0.0768
      2 O         142.5360  137.9554  163.9891 O.2     1  UNL1       -0.1498
      3 O         144.6554  140.0750  163.8655 O.2     1  UNL1       -0.1498
      4 O         141.6408  140.5869  165.5730 O.2     1  UNL1       -0.2509
      5 C         142.7176  139.7890  166.2468 C.2     1  UNL1        0.3232
      6 N         142.8169  139.7770  167.7435 N.am    1  UNL1       -0.2663
      7 N         143.6951  139.0032  165.4239 N.am    1  UNL1       -0.1690
      8 H         143.5237  139.2534  168.1857 H       1  UNL1        0.1565
      9 H         144.4018  138.4795  165.8661 H       1  UNL1        0.1781
     10 C         141.8395  140.5629  168.5664 C.ar    1  UNL1        0.0630
     11 C         140.5166  139.9609  168.9370 C.ar    1  UNL1        0.0270
     12 C         139.5392  140.7467  169.7599 C.ar    1  UNL1        0.0590
     13 CL        138.2162  140.1447  170.1306 Cl      1  UNL1       -0.0822
     14 C         139.8847  142.1345  170.2121 C.ar    1  UNL1        0.0123
     15 C         141.2077  142.7365  169.8414 C.ar    1  UNL1        0.0135
     16 C         142.1850  141.9507  169.0186 C.ar    1  UNL1        0.0712
     17 CL        143.5080  142.5527  168.6478 Cl      1  UNL1       -0.0810
     18 C         143.4964  139.0272  162.4307 C.ar    1  UNL1        0.1255
     19 C         143.8548  140.2664  161.6651 C.ar    1  UNL1        0.0233
     20 C         143.7555  140.2784  160.1684 C.ar    1  UNL1        0.0383
     21 C         143.2977  139.0512  159.4373 C.ar    1  UNL1        0.1387
     22 C         142.9392  137.8121  160.2029 C.ar    1  UNL1        0.0383
     23 C         143.0386  137.8001  161.6995 C.ar    1  UNL1        0.0233
     24 O         143.1983  139.0633  157.9407 O.3     1  UNL1       -0.4740
     25 C         143.5377  140.3086  157.1765 C.3     1  UNL1        0.2226
     26 C         144.6463  140.2898  156.1661 C.3     1  UNL1        0.1200
     27 N         145.8081  141.2276  156.3099 N.3     1  UNL1       -0.2696
     28 C         146.9810  141.3273  155.3802 C.3     1  UNL1        0.0722
     29 C         147.8988  142.3918  155.9043 C.3     1  UNL1        0.0188
     30 C         147.2930  142.9499  157.1579 C.3     1  UNL1        0.0188
     31 C         146.0009  142.2305  157.4086 C.3     1  UNL1        0.0722
@<TRIPOS>BOND
     1     4     5    2
     2     5     6   am
     3     6    10    1
     4    10    11   ar
     5    11    12   ar
     6    12    13    1
     7    12    14   ar
     8    14    15   ar
     9    15    16   ar
    10    16    17    1
    11     5     7   am
    12     7     1    1
    13     1     2    2
    14     1     3    2
    15     1    18    1
    16    18    19   ar
    17    19    20   ar
    18    20    21   ar
    19    21    24    1
    20    24    25    1
    21    25    26    1
    22    26    27    1
    23    27    28    1
    24    28    29    1
    25    29    30    1
    26    30    31    1
    27    21    22   ar
    28    22    23   ar
    29    16    10   ar
    30    23    18   ar
    31    31    27    1
    32     6     8    1
    33     7     9    1
@<TRIPOS>MOLECULE
*****
 31 33 0 0 0
SMALL
GASTEIGER

@<TRIPOS>ATOM
      1 S         141.7806  144.3853  162.7033 S.O2    1  UNL1        0.0768
      2 O         142.7288  143.2650  162.3938 O.2     1  UNL1       -0.1498
      3 O         140.8324  145.5055  163.0129 O.2     1  UNL1       -0.1498
      4 O         140.3856  143.8716  160.0976 O.2     1  UNL1       -0.2509
      5 C         141.5249  144.8453  160.1591 C.2     1  UNL1        0.3232
      6 N         141.9666  145.5622  158.9178 N.am    1  UNL1       -0.2663
      7 N         142.2224  145.1022  161.4620 N.am    1  UNL1       -0.1690
      8 H         142.7144  146.2013  158.9582 H       1  UNL1        0.1565
      9 H         142.9701  145.7413  161.5025 H       1  UNL1        0.1781
     10 C         141.2691  145.3054  157.6149 C.ar    1  UNL1        0.0630
     11 C         140.2195  146.2587  157.1254 C.ar    1  UNL1        0.0270
     12 C         139.5221  146.0018  155.8225 C.ar    1  UNL1        0.0590
     13 CL        138.4725  146.9551  155.3330 Cl      1  UNL1       -0.0822
     14 C         139.8741  144.7916  155.0092 C.ar    1  UNL1        0.0123
     15 C         140.9237  143.8384  155.4987 C.ar    1  UNL1        0.0135
     16 C         141.6211  144.0952  156.8015 C.ar    1  UNL1        0.0712
     17 CL        142.6707  143.1419  157.2911 Cl      1  UNL1       -0.0810
     18 C         141.3389  143.6684  163.9446 C.ar    1  UNL1        0.1255
     19 C         142.1959  142.5858  164.5308 C.ar    1  UNL1        0.0233
     20 C         141.7541  141.8689  165.7721 C.ar    1  UNL1        0.0383
     21 C         140.4553  142.2345  166.4273 C.ar    1  UNL1        0.1387
     22 C         139.5982  143.3171  165.8411 C.ar    1  UNL1        0.0383
     23 C         140.0400  144.0340  164.5998 C.ar    1  UNL1        0.0233
     24 O         140.0135  141.5176  167.6686 O.3     1  UNL1       -0.4740
     25 C         139.8207  140.0302  167.6472 C.3     1  UNL1        0.2226
     26 C         138.6041  139.4409  166.9970 C.3     1  UNL1        0.1200
     27 N         138.6518  139.0215  165.5576 N.3     1  UNL1       -0.2696
     28 C         138.4699  139.9205  164.3708 C.3     1  UNL1        0.0722
     29 C         138.5955  139.0841  163.1320 C.3     1  UNL1        0.0188
     30 C         138.8551  137.6680  163.5532 C.3     1  UNL1        0.0188
     31 C         138.8899  137.6294  165.0523 C.3     1  UNL1        0.0722
@<TRIPOS>BOND
     1     4     5    2
     2     5     6   am
     3     6    10    1
     4    10    11   ar
     5    11    12   ar
     6    12    13    1
     7    12    14   ar
     8    14    15   ar
     9    15    16   ar
    10    16    17    1
    11     5     7   am
    12     7     1    1
    13     1     2    2
    14     1     3    2
    15     1    18    1
    16    18    19   ar
    17    19    20   ar
    18    20    21   ar
    19    21    24    1
    20    24    25    1
    21    25    26    1
    22    26    27    1
    23    27    28    1
    24    28    29    1
    25    29    30    1
    26    30    31    1
    27    21    22   ar
    28    22    23   ar
    29    16    10   ar
    30    23    18   ar
    31    31    27    1
    32     6     8    1
    33     7     9    1
@<TRIPOS>MOLECULE
*****
 31 33 0 0 0
SMALL
GASTEIGER

@<TRIPOS>ATOM
      1 S         141.1855  144.9619  161.8299 S.O2    1  UNL1        0.0768
      2 O         142.1315  143.8293  161.5613 O.2     1  UNL1       -0.1498
      3 O         140.2394  146.0945  162.0985 O.2     1  UNL1       -0.1498
      4 O         139.4407  144.1772  159.5190 O.2     1  UNL1       -0.2509
      5 C         140.5862  145.1220  159.3069 C.2     1  UNL1        0.3232
      6 N         140.8594  145.6744  157.9394 N.am    1  UNL1       -0.2663
      7 N         141.4586  145.5144  160.4624 N.am    1  UNL1       -0.1690
      8 H         141.6113  146.2946  157.8002 H       1  UNL1        0.1565
      9 H         142.2105  146.1345  160.3232 H       1  UNL1        0.1781
     10 C         139.9870  145.2821  156.7839 C.ar    1  UNL1        0.0630
     11 C         140.0501  143.8870  156.2364 C.ar    1  UNL1        0.0270
     12 C         139.1777  143.4947  155.0810 C.ar    1  UNL1        0.0590
     13 CL        139.2408  142.0996  154.5334 Cl      1  UNL1       -0.0822
     14 C         138.2423  144.4975  154.4731 C.ar    1  UNL1        0.0123
     15 C         138.1792  145.8925  155.0207 C.ar    1  UNL1        0.0135
     16 C         139.0516  146.2848  156.1761 C.ar    1  UNL1        0.0712
     17 CL        138.9886  147.6799  156.7237 Cl      1  UNL1       -0.0810
     18 C         140.9123  144.4095  163.1974 C.ar    1  UNL1        0.1255
     19 C         141.9021  143.4872  163.8452 C.ar    1  UNL1        0.0233
     20 C         141.6288  142.9347  165.2128 C.ar    1  UNL1        0.0383
     21 C         140.3658  143.3046  165.9325 C.ar    1  UNL1        0.1387
     22 C         139.3760  144.2269  165.2847 C.ar    1  UNL1        0.0383
     23 C         139.6492  144.7793  163.9172 C.ar    1  UNL1        0.0233
     24 O         140.0926  142.7521  167.3000 O.3     1  UNL1       -0.4740
     25 C         141.0980  141.8572  167.9620 C.3     1  UNL1        0.2226
     26 C         140.8234  140.3883  168.0926 C.3     1  UNL1        0.1200
     27 N         140.1624  139.6460  166.9691 N.3     1  UNL1       -0.2696
     28 C         138.7050  139.3037  166.8756 C.3     1  UNL1        0.0722
     29 C         138.4846  138.5620  165.5906 C.3     1  UNL1        0.0188
     30 C         139.8058  138.4458  164.8899 C.3     1  UNL1        0.0188
     31 C         140.8428  139.1158  165.7419 C.3     1  UNL1        0.0722
@<TRIPOS>BOND
     1     4     5    2
     2     5     6   am
     3     6    10    1
     4    10    11   ar
     5    11    12   ar
     6    12    13    1
     7    12    14   ar
     8    14    15   ar
     9    15    16   ar
    10    16    17    1
    11     5     7   am
    12     7     1    1
    13     1     2    2
    14     1     3    2
    15     1    18    1
    16    18    19   ar
    17    19    20   ar
    18    20    21   ar
    19    21    24    1
    20    24    25    1
    21    25    26    1
    22    26    27    1
    23    27    28    1
    24    28    29    1
    25    29    30    1
    26    30    31    1
    27    21    22   ar
    28    22    23   ar
    29    16    10   ar
    30    23    18   ar
    31    31    27    1
    32     6     8    1
    33     7     9    1
@<TRIPOS>MOLECULE
*****
 31 33 0 0 0
SMALL
GASTEIGER

@<TRIPOS>ATOM
      1 S         142.0560  138.1603  162.5346 S.O2    1  UNL1        0.0768
      2 O         140.9663  137.1572  162.7716 O.2     1  UNL1       -0.1498
      3 O         143.1457  139.1635  162.2976 O.2     1  UNL1       -0.1498
      4 O         140.8211  140.1669  164.3917 O.2     1  UNL1       -0.2509
      5 C         141.7772  139.1410  164.9243 C.2     1  UNL1        0.3232
      6 N         142.1158  139.1184  166.3853 N.am    1  UNL1       -0.2663
      7 N         142.3946  138.1377  163.9956 N.am    1  UNL1       -0.1690
      8 H         142.7432  138.4451  166.7349 H       1  UNL1        0.1565
      9 H         143.0221  137.4644  164.3452 H       1  UNL1        0.1781
     10 C         141.4983  140.1217  167.3140 C.ar    1  UNL1        0.0630
     11 C         140.3312  139.7311  168.1714 C.ar    1  UNL1        0.0270
     12 C         139.7138  140.7344  169.0999 C.ar    1  UNL1        0.0590
     13 CL        138.5466  140.3439  169.9574 Cl      1  UNL1       -0.0822
     14 C         140.2636  142.1282  169.1711 C.ar    1  UNL1        0.0123
     15 C         141.4307  142.5187  168.3136 C.ar    1  UNL1        0.0135
     16 C         142.0481  141.5155  167.3851 C.ar    1  UNL1        0.0712
     17 CL        143.2153  141.9060  166.5276 Cl      1  UNL1       -0.0810
     18 C         141.7174  138.1829  161.0735 C.ar    1  UNL1        0.1255
     19 C         140.3013  138.4121  160.6352 C.ar    1  UNL1        0.0233
     20 C         139.9628  138.4348  159.1741 C.ar    1  UNL1        0.0383
     21 C         141.0403  138.2282  158.1512 C.ar    1  UNL1        0.1387
     22 C         142.4564  137.9990  158.5895 C.ar    1  UNL1        0.0383
     23 C         142.7950  137.9764  160.0506 C.ar    1  UNL1        0.0233
     24 O         140.7017  138.2508  156.6902 O.3     1  UNL1       -0.4740
     25 C         140.0082  137.0780  156.0627 C.3     1  UNL1        0.2226
     26 C         140.7533  136.1849  155.1155 C.3     1  UNL1        0.1200
     27 N         141.5455  135.0259  155.6438 N.3     1  UNL1       -0.2696
     28 C         142.6764  135.1054  156.6260 C.3     1  UNL1        0.0722
     29 C         143.1757  133.7125  156.8719 C.3     1  UNL1        0.0188
     30 C         142.3533  132.7720  156.0418 C.3     1  UNL1        0.0188
     31 C         141.3458  133.5837  155.2828 C.3     1  UNL1        0.0722
@<TRIPOS>BOND
     1     4     5    2
     2     5     6   am
     3     6    10    1
     4    10    11   ar
     5    11    12   ar
     6    12    13    1
     7    12    14   ar
     8    14    15   ar
     9    15    16   ar
    10    16    17    1
    11     5     7   am
    12     7     1    1
    13     1     2    2
    14     1     3    2
    15     1    18    1
    16    18    19   ar
    17    19    20   ar
    18    20    21   ar
    19    21    24    1
    20    24    25    1
    21    25    26    1
    22    26    27    1
    23    27    28    1
    24    28    29    1
    25    29    30    1
    26    30    31    1
    27    21    22   ar
    28    22    23   ar
    29    16    10   ar
    30    23    18   ar
    31    31    27    1
    32     6     8    1
    33     7     9    1
@<TRIPOS>MOLECULE
*****
 31 33 0 0 0
SMALL
GASTEIGER

@<TRIPOS>ATOM
      1 S         139.3274  138.9474  163.7953 S.O2    1  UNL1        0.0768
      2 O         140.3416  137.8434  163.8460 O.2     1  UNL1       -0.1498
      3 O         138.3133  140.0514  163.7445 O.2     1  UNL1       -0.1498
      4 O         140.9941  140.8660  165.3893 O.2     1  UNL1       -0.2509
      5 C         140.0821  139.9033  166.0902 C.2     1  UNL1        0.3232
      6 N         140.0034  139.8998  167.5881 N.am    1  UNL1       -0.2663
      7 N         139.2487  138.9439  165.2932 N.am    1  UNL1       -0.1690
      8 H         139.4048  139.2679  168.0481 H       1  UNL1        0.1565
      9 H         138.6501  138.3120  165.7532 H       1  UNL1        0.1781
     10 C         140.8368  140.8591  168.3852 C.ar    1  UNL1        0.0630
     11 C         140.2543  142.1675  168.8309 C.ar    1  UNL1        0.0270
     12 C         141.0877  143.1268  169.6279 C.ar    1  UNL1        0.0590
     13 CL        140.5052  144.4353  170.0737 Cl      1  UNL1       -0.0822
     14 C         142.5035  142.7776  169.9793 C.ar    1  UNL1        0.0123
     15 C         143.0860  141.4692  169.5336 C.ar    1  UNL1        0.0135
     16 C         142.2526  140.5099  168.7366 C.ar    1  UNL1        0.0712
     17 CL        142.8351  139.2014  168.2908 Cl      1  UNL1       -0.0810
     18 C         139.4061  138.9509  162.2974 C.ar    1  UNL1        0.1255
     19 C         140.6420  138.4507  161.6101 C.ar    1  UNL1        0.0233
     20 C         140.7207  138.4542  160.1121 C.ar    1  UNL1        0.0383
     21 C         139.5635  138.9578  159.3015 C.ar    1  UNL1        0.1387
     22 C         138.3275  139.4579  159.9888 C.ar    1  UNL1        0.0383
     23 C         138.2488  139.4545  161.4866 C.ar    1  UNL1        0.0233
     24 O         139.6422  138.9613  157.8036 O.3     1  UNL1       -0.4740
     25 C         139.8529  137.6754  157.0606 C.3     1  UNL1        0.2226
     26 C         141.1002  137.4718  156.2526 C.3     1  UNL1        0.1200
     27 N         141.8064  136.1487  156.2838 N.3     1  UNL1       -0.2696
     28 C         141.4189  134.9240  155.5092 C.3     1  UNL1        0.0722
     29 C         142.3970  133.8365  155.8417 C.3     1  UNL1        0.0188
     30 C         143.3891  134.3891  156.8218 C.3     1  UNL1        0.0188
     31 C         143.0240  135.8181  157.0950 C.3     1  UNL1        0.0722
@<TRIPOS>BOND
     1     4     5    2
     2     5     6   am
     3     6    10    1
     4    10    11   ar
     5    11    12   ar
     6    12    13    1
     7    12    14   ar
     8    14    15   ar
     9    15    16   ar
    10    16    17    1
    11     5     7   am
    12     7     1    1
    13     1     2    2
    14     1     3    2
    15     1    18    1
    16    18    19   ar
    17    19    20   ar
    18    20    21   ar
    19    21    24    1
    20    24    25    1
    21    25    26    1
    22    26    27    1
    23    27    28    1
    24    28    29    1
    25    29    30    1
    26    30    31    1
    27    21    22   ar
    28    22    23   ar
    29    16    10   ar
    30    23    18   ar
    31    31    27    1
    32     6     8    1
    33     7     9    1
@<TRIPOS>MOLECULE
*****
 31 33 0 0 0
SMALL
GASTEIGER

@<TRIPOS>ATOM
      1 S         143.1386  138.6636  164.1253 S.O2    1  UNL1        0.0768
      2 O         141.7435  138.1363  163.9657 O.2     1  UNL1       -0.1498
      3 O         144.5338  139.1908  164.2849 O.2     1  UNL1       -0.1498
      4 O         142.1142  140.9369  165.7935 O.2     1  UNL1       -0.2509
      5 C         142.5140  139.6474  166.4474 C.2     1  UNL1        0.3232
      6 N         142.4015  139.4946  167.9353 N.am    1  UNL1       -0.2663
      7 N         143.0262  138.5108  165.6132 N.am    1  UNL1       -0.1690
      8 H         142.6639  138.6483  168.3644 H       1  UNL1        0.1565
      9 H         143.2886  137.6645  166.0423 H       1  UNL1        0.1781
     10 C         141.8893  140.6312  168.7694 C.ar    1  UNL1        0.0630
     11 C         142.8535  141.5812  169.4158 C.ar    1  UNL1        0.0270
     12 C         142.3413  142.7177  170.2499 C.ar    1  UNL1        0.0590
     13 CL        143.3055  143.6678  170.8963 Cl      1  UNL1       -0.0822
     14 C         140.8648  142.9044  170.4376 C.ar    1  UNL1        0.0123
     15 C         139.9006  141.9544  169.7913 C.ar    1  UNL1        0.0135
     16 C         140.4128  140.8178  168.9572 C.ar    1  UNL1        0.0712
     17 CL        139.4486  139.8678  168.3108 Cl      1  UNL1       -0.0810
     18 C         143.2511  138.8164  162.6374 C.ar    1  UNL1        0.1255
     19 C         142.6220  137.8015  161.7295 C.ar    1  UNL1        0.0233
     20 C         142.7345  137.9544  160.2415 C.ar    1  UNL1        0.0383
     21 C         143.4760  139.1221  159.6614 C.ar    1  UNL1        0.1387
     22 C         144.1050  140.1371  160.5693 C.ar    1  UNL1        0.0383
     23 C         143.9926  139.9842  162.0572 C.ar    1  UNL1        0.0233
     24 O         143.5884  139.2750  158.1735 O.3     1  UNL1       -0.4740
     25 C         142.5731  138.6335  157.2748 C.3     1  UNL1        0.2226
     26 C         143.0106  137.9692  156.0030 C.3     1  UNL1        0.1200
     27 N         142.8279  136.4907  155.8279 N.3     1  UNL1       -0.2696
     28 C         141.5289  135.7875  155.5671 C.3     1  UNL1        0.0722
     29 C         141.8103  134.3180  155.4609 C.3     1  UNL1        0.0188
     30 C         143.2834  134.1129  155.6559 C.3     1  UNL1        0.0188
     31 C         143.9123  135.4557  155.8828 C.3     1  UNL1        0.0722
@<TRIPOS>BOND
     1     4     5    2
     2     5     6   am
     3     6    10    1
     4    10    11   ar
     5    11    12   ar
     6    12    13    1
     7    12    14   ar
     8    14    15   ar
     9    15    16   ar
    10    16    17    1
    11     5     7   am
    12     7     1    1
    13     1     2    2
    14     1     3    2
    15     1    18    1
    16    18    19   ar
    17    19    20   ar
    18    20    21   ar
    19    21    24    1
    20    24    25    1
    21    25    26    1
    22    26    27    1
    23    27    28    1
    24    28    29    1
    25    29    30    1
    26    30    31    1
    27    21    22   ar
    28    22    23   ar
    29    16    10   ar
    30    23    18   ar
    31    31    27    1
    32     6     8    1
    33     7     9    1
@<TRIPOS>MOLECULE
*****
 31 33 0 0 0
SMALL
GASTEIGER

@<TRIPOS>ATOM
      1 S         138.9483  139.1665  164.2102 S.O2    1  UNL1        0.0768
      2 O         140.0684  138.1787  164.0706 O.2     1  UNL1       -0.1498
      3 O         137.8282  140.1543  164.3497 O.2     1  UNL1       -0.1498
      4 O         140.5987  141.1597  165.7279 O.2     1  UNL1       -0.2509
      5 C         139.8768  140.0692  166.4625 C.2     1  UNL1        0.3232
      6 N         139.9801  139.9754  167.9560 N.am    1  UNL1       -0.2663
      7 N         139.0516  139.0726  165.7036 N.am    1  UNL1       -0.1690
      8 H         139.5062  139.2596  168.4381 H       1  UNL1        0.1565
      9 H         138.5778  138.3569  166.1858 H       1  UNL1        0.1781
     10 C         140.8053  140.9720  168.7149 C.ar    1  UNL1        0.0630
     11 C         140.2237  142.3062  169.0776 C.ar    1  UNL1        0.0270
     12 C         141.0489  143.3027  169.8364 C.ar    1  UNL1        0.0590
     13 CL        140.4673  144.6370  170.1992 Cl      1  UNL1       -0.0822
     14 C         142.4557  142.9651  170.2325 C.ar    1  UNL1        0.0123
     15 C         143.0373  141.6309  169.8698 C.ar    1  UNL1        0.0135
     16 C         142.2121  140.6343  169.1110 C.ar    1  UNL1        0.0712
     17 CL        142.7936  139.3000  168.7482 Cl      1  UNL1       -0.0810
     18 C         138.8450  139.2604  162.7167 C.ar    1  UNL1        0.1255
     19 C         139.6003  138.2963  161.8506 C.ar    1  UNL1        0.0233
     20 C         139.4969  138.3903  160.3570 C.ar    1  UNL1        0.0383
     21 C         138.6384  139.4482  159.7297 C.ar    1  UNL1        0.1387
     22 C         137.8831  140.4123  160.5958 C.ar    1  UNL1        0.0383
     23 C         137.9864  140.3184  162.0893 C.ar    1  UNL1        0.0233
     24 O         138.5351  139.5421  158.2362 O.3     1  UNL1       -0.4740
     25 C         139.2009  140.6719  157.5079 C.3     1  UNL1        0.2226
     26 C         140.4598  141.2778  158.0540 C.3     1  UNL1        0.1200
     27 N         140.4197  142.6259  158.7105 N.3     1  UNL1       -0.2696
     28 C         140.5766  142.8972  160.1774 C.3     1  UNL1        0.0722
     29 C         140.4697  144.3784  160.3889 C.3     1  UNL1        0.0188
     30 C         140.2466  145.0225  159.0528 C.3     1  UNL1        0.0188
     31 C         140.2158  143.9394  158.0155 C.3     1  UNL1        0.0722
@<TRIPOS>BOND
     1     4     5    2
     2     5     6   am
     3     6    10    1
     4    10    11   ar
     5    11    12   ar
     6    12    13    1
     7    12    14   ar
     8    14    15   ar
     9    15    16   ar
    10    16    17    1
    11     5     7   am
    12     7     1    1
    13     1     2    2
    14     1     3    2
    15     1    18    1
    16    18    19   ar
    17    19    20   ar
    18    20    21   ar
    19    21    24    1
    20    24    25    1
    21    25    26    1
    22    26    27    1
    23    27    28    1
    24    28    29    1
    25    29    30    1
    26    30    31    1
    27    21    22   ar
    28    22    23   ar
    29    16    10   ar
    30    23    18   ar
    31    31    27    1
    32     6     8    1
    33     7     9    1
@<TRIPOS>MOLECULE
*****
 31 33 0 0 0
SMALL
GASTEIGER

@<TRIPOS>ATOM
      1 S         143.7067  139.0708  164.1675 S.O2    1  UNL1        0.0768
      2 O         142.5370  138.1343  164.0991 O.2     1  UNL1       -0.1498
      3 O         144.8763  140.0073  164.2359 O.2     1  UNL1       -0.1498
      4 O         141.7718  140.7243  165.7557 O.2     1  UNL1       -0.2509
      5 C         142.7259  139.8048  166.4587 C.2     1  UNL1        0.3232
      6 N         142.7126  139.7120  167.9557 N.am    1  UNL1       -0.2663
      7 N         143.6933  138.9780  165.6645 N.am    1  UNL1       -0.1690
      8 H         143.3388  139.1085  168.4171 H       1  UNL1        0.1565
      9 H         144.3196  138.3745  166.1259 H       1  UNL1        0.1781
     10 C         141.7451  140.5388  168.7498 C.ar    1  UNL1        0.0630
     11 C         140.4056  139.9753  169.1214 C.ar    1  UNL1        0.0270
     12 C         139.4382  140.8020  169.9154 C.ar    1  UNL1        0.0590
     13 CL        138.0986  140.2385  170.2870 Cl      1  UNL1       -0.0822
     14 C         139.8104  142.1923  170.3380 C.ar    1  UNL1        0.0123
     15 C         141.1499  142.7559  169.9665 C.ar    1  UNL1        0.0135
     16 C         142.1172  141.9291  169.1724 C.ar    1  UNL1        0.0712
     17 CL        143.4568  142.4927  168.8008 Cl      1  UNL1       -0.0810
     18 C         143.7200  139.1636  162.6705 C.ar    1  UNL1        0.1255
     19 C         143.3297  137.9756  161.8419 C.ar    1  UNL1        0.0233
     20 C         143.3431  138.0684  160.3448 C.ar    1  UNL1        0.0383
     21 C         143.7466  139.3491  159.6763 C.ar    1  UNL1        0.1387
     22 C         144.1369  140.5371  160.5049 C.ar    1  UNL1        0.0383
     23 C         144.1236  140.4443  162.0019 C.ar    1  UNL1        0.0233
     24 O         143.7599  139.4419  158.1793 O.3     1  UNL1       -0.4740
     25 C         143.8347  140.7830  157.5115 C.3     1  UNL1        0.2226
     26 C         142.5882  141.5946  157.3173 C.3     1  UNL1        0.1200
     27 N         142.0191  142.3804  158.4612 N.3     1  UNL1       -0.2696
     28 C         140.8569  141.9743  159.3182 C.3     1  UNL1        0.0722
     29 C         140.6317  143.0532  160.3356 C.3     1  UNL1        0.0188
     30 C         141.6548  144.1262  160.1075 C.3     1  UNL1        0.0188
     31 C         142.5122  143.7104  158.9491 C.3     1  UNL1        0.0722
@<TRIPOS>BOND
     1     4     5    2
     2     5     6   am
     3     6    10    1
     4    10    11   ar
     5    11    12   ar
     6    12    13    1
     7    12    14   ar
     8    14    15   ar
     9    15    16   ar
    10    16    17    1
    11     5     7   am
    12     7     1    1
    13     1     2    2
    14     1     3    2
    15     1    18    1
    16    18    19   ar
    17    19    20   ar
    18    20    21   ar
    19    21    24    1
    20    24    25    1
    21    25    26    1
    22    26    27    1
    23    27    28    1
    24    28    29    1
    25    29    30    1
    26    30    31    1
    27    21    22   ar
    28    22    23   ar
    29    16    10   ar
    30    23    18   ar
    31    31    27    1
    32     6     8    1
    33     7     9    1
