@<TRIPOS>MOLECULE
*****
 26 28 0 0 0
SMALL
GASTEIGER

@<TRIPOS>ATOM
      1 C         139.8368  140.7516  170.2692 C.3     1  UNL1        0.0117
      2 C         140.4193  140.3481  168.9471 C.3     1  UNL1        0.1022
      3 C         139.5163  139.9149  167.8305 C.ar    1  UNL1        0.2379
      4 N         139.6692  140.2755  166.3825 N.ar    1  UNL1       -0.1907
      5 C         138.5492  139.6287  165.6229 C.ar    1  UNL1        0.2041
      6 N         137.7040  138.8682  166.6014 N.ar    1  UNL1       -0.0560
      7 O         138.3017  139.0451  167.9658 O.2     1  UNL1       -0.3370
      8 C         138.3154  139.7252  164.1444 C.ar    1  UNL1        0.0497
      9 C         138.5360  138.5264  163.2703 C.ar    1  UNL1        0.0049
     10 C         138.3022  138.6230  161.7918 C.ar    1  UNL1        0.0115
     11 C         137.8477  139.9184  161.1874 C.ar    1  UNL1        0.0585
     12 CL        137.6139  140.0150  159.7088 Cl      1  UNL1       -0.0822
     13 C         137.6270  141.1172  162.0615 C.ar    1  UNL1        0.0229
     14 C         137.8609  141.0206  163.5400 C.ar    1  UNL1        0.0615
     15 CL        137.6402  142.2195  164.4141 Cl      1  UNL1       -0.0821
     16 C         141.9049  140.3777  168.7417 C.3     1  UNL1        0.1374
     17 N         142.7319  139.1703  169.0716 N.3     1  UNL1       -0.3146
     18 H         142.1256  138.4280  169.4205 H       1  UNL1        0.1192
     19 H         143.4179  139.4131  169.7863 H       1  UNL1        0.1192
     20 C         142.5636  141.6144  168.2065 C.2     1  UNL1        0.2402
     21 O         142.6946  142.8302  169.0754 O.2     1  UNL1       -0.2734
     22 N         143.0913  141.6355  166.8026 N.am    1  UNL1       -0.2785
     23 C         143.0326  140.5024  165.8215 C.3     1  UNL1        0.0935
     24 C         143.6753  140.9600  164.5458 C.3     1  UNL1        0.0233
     25 C         144.1313  142.3759  164.7384 C.3     1  UNL1        0.0233
     26 C         143.7703  142.7934  166.1332 C.3     1  UNL1        0.0935
@<TRIPOS>BOND
     1     2     1    1
     2     2     3    1
     3     3     4   ar
     4     4     5   ar
     5     5     8    1
     6     8     9   ar
     7     9    10   ar
     8    10    11   ar
     9    11    12    1
    10    11    13   ar
    11    13    14   ar
    12    14    15    1
    13     5     6   ar
    14     6     7   ar
    15     2    16    1
    16    16    17    1
    17    16    20    1
    18    20    21    2
    19    20    22   am
    20    22    23    1
    21    23    24    1
    22    24    25    1
    23    25    26    1
    24     7     3   ar
    25    26    22    1
    26    14     8   ar
    27    17    18    1
    28    17    19    1
@<TRIPOS>MOLECULE
*****
 26 28 0 0 0
SMALL
GASTEIGER

@<TRIPOS>ATOM
      1 C         139.3064  137.5489  163.3130 C.3     1  UNL1        0.0117
      2 C         139.0380  138.9520  163.7705 C.3     1  UNL1        0.1022
      3 C         139.2269  139.3198  165.2124 C.ar    1  UNL1        0.2379
      4 N         140.2606  140.2623  165.7538 N.ar    1  UNL1       -0.1907
      5 C         140.0879  140.3347  167.2420 C.ar    1  UNL1        0.2041
      6 N         138.9474  139.4368  167.6205 N.ar    1  UNL1       -0.0560
      7 O         138.4153  138.8095  166.3662 O.2     1  UNL1       -0.3370
      8 C         140.9111  141.1600  168.1861 C.ar    1  UNL1        0.0497
      9 C         140.3685  142.4519  168.7214 C.ar    1  UNL1        0.0049
     10 C         141.1917  143.2772  169.6655 C.ar    1  UNL1        0.0115
     11 C         142.5574  142.8105  170.0742 C.ar    1  UNL1        0.0585
     12 CL        143.3806  143.6358  171.0183 Cl      1  UNL1       -0.0822
     13 C         143.1000  141.5186  169.5389 C.ar    1  UNL1        0.0229
     14 C         142.2768  140.6933  168.5949 C.ar    1  UNL1        0.0615
     15 CL        142.8193  139.4014  168.0595 Cl      1  UNL1       -0.0821
     16 C         138.5806  139.9872  162.7861 C.3     1  UNL1        0.1374
     17 N         137.3062  139.7838  162.0215 N.3     1  UNL1       -0.3146
     18 H         136.8842  138.8960  162.2939 H       1  UNL1        0.1192
     19 H         137.5077  139.7718  161.0217 H       1  UNL1        0.1192
     20 C         139.3975  141.2258  162.5663 C.2     1  UNL1        0.2402
     21 O         140.5816  141.1897  161.6460 O.2     1  UNL1       -0.2734
     22 N         139.0305  142.5005  163.2666 N.am    1  UNL1       -0.2785
     23 C         137.8802  142.6881  164.2107 C.3     1  UNL1        0.0935
     24 C         137.8881  144.1149  164.6733 C.3     1  UNL1        0.0233
     25 C         139.0433  144.8092  164.0151 C.3     1  UNL1        0.0233
     26 C         139.7494  143.8114  163.1456 C.3     1  UNL1        0.0935
@<TRIPOS>BOND
     1     2     1    1
     2     2     3    1
     3     3     4   ar
     4     4     5   ar
     5     5     8    1
     6     8     9   ar
     7     9    10   ar
     8    10    11   ar
     9    11    12    1
    10    11    13   ar
    11    13    14   ar
    12    14    15    1
    13     5     6   ar
    14     6     7   ar
    15     2    16    1
    16    16    17    1
    17    16    20    1
    18    20    21    2
    19    20    22   am
    20    22    23    1
    21    23    24    1
    22    24    25    1
    23    25    26    1
    24     7     3   ar
    25    26    22    1
    26    14     8   ar
    27    17    18    1
    28    17    19    1
@<TRIPOS>MOLECULE
*****
 26 28 0 0 0
SMALL
GASTEIGER

@<TRIPOS>ATOM
      1 C         144.4308  139.8944  162.6728 C.3     1  UNL1        0.0117
      2 C         143.4252  139.0132  163.3526 C.3     1  UNL1        0.1022
      3 C         143.1794  139.1533  164.8257 C.ar    1  UNL1        0.2379
      4 N         142.2801  140.1615  165.4775 N.ar    1  UNL1       -0.1907
      5 C         142.3347  139.9412  166.9602 C.ar    1  UNL1        0.2041
      6 N         143.2676  138.7968  167.2247 N.ar    1  UNL1       -0.0560
      7 O         143.7897  138.3098  165.9055 O.2     1  UNL1       -0.3370
      8 C         141.5874  140.7272  167.9965 C.ar    1  UNL1        0.0497
      9 C         140.2860  140.2113  168.5350 C.ar    1  UNL1        0.0049
     10 C         139.5388  140.9974  169.5713 C.ar    1  UNL1        0.0115
     11 C         140.0931  142.2993  170.0690 C.ar    1  UNL1        0.0585
     12 CL        139.3459  143.0853  171.1053 Cl      1  UNL1       -0.0822
     13 C         141.3946  142.8152  169.5305 C.ar    1  UNL1        0.0229
     14 C         142.1417  142.0292  168.4942 C.ar    1  UNL1        0.0615
     15 CL        143.4432  142.5450  167.9557 Cl      1  UNL1       -0.0821
     16 C         142.6653  137.9918  162.5592 C.3     1  UNL1        0.1374
     17 N         143.2784  137.3892  161.3299 N.3     1  UNL1       -0.3146
     18 H         144.2068  137.7856  161.1836 H       1  UNL1        0.1192
     19 H         142.6904  137.5931  160.5218 H       1  UNL1        0.1192
     20 C         141.2925  137.5731  162.9950 C.2     1  UNL1        0.2402
     21 O         141.1282  136.6111  164.1341 O.2     1  UNL1       -0.2734
     22 N         140.0841  138.1163  162.2917 N.am    1  UNL1       -0.2785
     23 C         140.0917  139.0805  161.1427 C.3     1  UNL1        0.0935
     24 C         138.6682  139.3508  160.7549 C.3     1  UNL1        0.0233
     25 C         137.7807  138.5536  161.6641 C.3     1  UNL1        0.0233
     26 C         138.6557  137.7907  162.6140 C.3     1  UNL1        0.0935
@<TRIPOS>BOND
     1     2     1    1
     2     2     3    1
     3     3     4   ar
     4     4     5   ar
     5     5     8    1
     6     8     9   ar
     7     9    10   ar
     8    10    11   ar
     9    11    12    1
    10    11    13   ar
    11    13    14   ar
    12    14    15    1
    13     5     6   ar
    14     6     7   ar
    15     2    16    1
    16    16    17    1
    17    16    20    1
    18    20    21    2
    19    20    22   am
    20    22    23    1
    21    23    24    1
    22    24    25    1
    23    25    26    1
    24     7     3   ar
    25    26    22    1
    26    14     8   ar
    27    17    18    1
    28    17    19    1
@<TRIPOS>MOLECULE
*****
 26 28 0 0 0
SMALL
GASTEIGER

@<TRIPOS>ATOM
      1 C         143.2748  142.6842  160.0807 C.3     1  UNL1        0.0117
      2 C         142.5905  143.3010  161.2645 C.3     1  UNL1        0.1022
      3 C         143.1063  143.0404  162.6488 C.ar    1  UNL1        0.2379
      4 N         142.5043  142.1014  163.6517 N.ar    1  UNL1       -0.1907
      5 C         143.3405  142.1537  164.8959 C.ar    1  UNL1        0.2041
      6 N         144.4594  143.1250  164.6618 N.ar    1  UNL1       -0.0560
      7 O         144.3147  143.6730  163.2730 O.2     1  UNL1       -0.3370
      8 C         143.1001  141.3720  166.1534 C.ar    1  UNL1        0.0497
      9 C         142.8472  142.0898  167.4459 C.ar    1  UNL1        0.0049
     10 C         142.6068  141.3081  168.7033 C.ar    1  UNL1        0.0115
     11 C         142.6194  139.8085  168.6681 C.ar    1  UNL1        0.0585
     12 CL        142.3790  139.0268  169.9256 Cl      1  UNL1       -0.0822
     13 C         142.8724  139.0907  167.3756 C.ar    1  UNL1        0.0229
     14 C         143.1127  139.8725  166.1182 C.ar    1  UNL1        0.0615
     15 CL        143.3657  139.1547  164.8256 Cl      1  UNL1       -0.0821
     16 C         141.3905  144.1783  161.0641 C.3     1  UNL1        0.1374
     17 N         141.5627  145.5816  160.5628 N.3     1  UNL1       -0.3146
     18 H         142.5538  145.7696  160.4121 H       1  UNL1        0.1192
     19 H         141.1934  146.2366  161.2521 H       1  UNL1        0.1192
     20 C         140.0183  143.6524  161.3648 C.2     1  UNL1        0.2402
     21 O         139.2926  142.8243  160.3460 O.2     1  UNL1       -0.2734
     22 N         139.3717  143.9546  162.6841 N.am    1  UNL1       -0.2785
     23 C         139.9715  144.7647  163.7950 C.3     1  UNL1        0.0935
     24 C         138.9823  144.8105  164.9215 C.3     1  UNL1        0.0233
     25 C         137.7711  144.0288  164.5071 C.3     1  UNL1        0.0233
     26 C         138.0117  143.4998  163.1242 C.3     1  UNL1        0.0935
@<TRIPOS>BOND
     1     2     1    1
     2     2     3    1
     3     3     4   ar
     4     4     5   ar
     5     5     8    1
     6     8     9   ar
     7     9    10   ar
     8    10    11   ar
     9    11    12    1
    10    11    13   ar
    11    13    14   ar
    12    14    15    1
    13     5     6   ar
    14     6     7   ar
    15     2    16    1
    16    16    17    1
    17    16    20    1
    18    20    21    2
    19    20    22   am
    20    22    23    1
    21    23    24    1
    22    24    25    1
    23    25    26    1
    24     7     3   ar
    25    26    22    1
    26    14     8   ar
    27    17    18    1
    28    17    19    1
@<TRIPOS>MOLECULE
*****
 26 28 0 0 0
SMALL
GASTEIGER

@<TRIPOS>ATOM
      1 C         144.8592  142.4362  161.4297 C.3     1  UNL1        0.0117
      2 C         143.8433  142.8753  162.4422 C.3     1  UNL1        0.1022
      3 C         143.3843  141.9226  163.5060 C.ar    1  UNL1        0.2379
      4 N         141.9813  141.4298  163.7026 N.ar    1  UNL1       -0.1907
      5 C         141.9777  140.4981  164.8781 C.ar    1  UNL1        0.2041
      6 N         143.3785  140.4151  165.4081 N.ar    1  UNL1       -0.0560
      7 O         144.2479  141.2954  164.5601 O.2     1  UNL1       -0.3370
      8 C         140.7830  139.7761  165.4273 C.ar    1  UNL1        0.0497
      9 C         140.1474  140.2407  166.7040 C.ar    1  UNL1        0.0049
     10 C         138.9528  139.5187  167.2531 C.ar    1  UNL1        0.0115
     11 C         138.3937  138.3322  166.5255 C.ar    1  UNL1        0.0585
     12 CL        137.1991  137.6102  167.0747 Cl      1  UNL1       -0.0822
     13 C         139.0293  137.8675  165.2487 C.ar    1  UNL1        0.0229
     14 C         140.2239  138.5895  164.6996 C.ar    1  UNL1        0.0615
     15 CL        140.8596  138.1249  163.4228 Cl      1  UNL1       -0.0821
     16 C         143.2864  144.2671  162.3908 C.3     1  UNL1        0.1374
     17 N         144.0825  145.4142  162.9392 N.3     1  UNL1       -0.3146
     18 H         144.9699  145.0683  163.3045 H       1  UNL1        0.1192
     19 H         143.5582  145.8640  163.6896 H       1  UNL1        0.1192
     20 C         141.9335  144.5121  161.7912 C.2     1  UNL1        0.2402
     21 O         141.7912  144.6880  160.3083 O.2     1  UNL1       -0.2734
     22 N         140.7230  144.5811  162.6742 N.am    1  UNL1       -0.2785
     23 C         140.7098  144.4250  164.1660 C.3     1  UNL1        0.0935
     24 C         139.2918  144.5658  164.6343 C.3     1  UNL1        0.0233
     25 C         138.4285  144.8087  163.4320 C.3     1  UNL1        0.0233
     26 C         139.3131  144.8182  162.2205 C.3     1  UNL1        0.0935
@<TRIPOS>BOND
     1     2     1    1
     2     2     3    1
     3     3     4   ar
     4     4     5   ar
     5     5     8    1
     6     8     9   ar
     7     9    10   ar
     8    10    11   ar
     9    11    12    1
    10    11    13   ar
    11    13    14   ar
    12    14    15    1
    13     5     6   ar
    14     6     7   ar
    15     2    16    1
    16    16    17    1
    17    16    20    1
    18    20    21    2
    19    20    22   am
    20    22    23    1
    21    23    24    1
    22    24    25    1
    23    25    26    1
    24     7     3   ar
    25    26    22    1
    26    14     8   ar
    27    17    18    1
    28    17    19    1
@<TRIPOS>MOLECULE
*****
 26 28 0 0 0
SMALL
GASTEIGER

@<TRIPOS>ATOM
      1 C         138.2731  138.7629  162.7879 C.3     1  UNL1        0.0117
      2 C         139.5572  138.7473  163.5631 C.3     1  UNL1        0.1022
      3 C         139.5801  139.2218  164.9859 C.ar    1  UNL1        0.2379
      4 N         140.6150  140.1169  165.6003 N.ar    1  UNL1       -0.1907
      5 C         140.2466  140.3328  167.0382 C.ar    1  UNL1        0.2041
      6 N         138.9839  139.5710  167.3126 N.ar    1  UNL1       -0.0560
      7 O         138.5719  138.8843  166.0442 O.2     1  UNL1       -0.3370
      8 C         141.0074  141.1645  168.0280 C.ar    1  UNL1        0.0497
      9 C         140.4496  142.4781  168.4895 C.ar    1  UNL1        0.0049
     10 C         141.2103  143.3097  169.4793 C.ar    1  UNL1        0.0115
     11 C         142.5288  142.8276  170.0076 C.ar    1  UNL1        0.0585
     12 CL        143.2895  143.6593  170.9975 Cl      1  UNL1       -0.0822
     13 C         143.0866  141.5139  169.5461 C.ar    1  UNL1        0.0229
     14 C         142.3259  140.6823  168.5563 C.ar    1  UNL1        0.0615
     15 CL        142.8836  139.3686  168.0948 Cl      1  UNL1       -0.0821
     16 C         140.8183  138.2571  162.9156 C.3     1  UNL1        0.1374
     17 N         141.2077  136.8130  163.0298 N.3     1  UNL1       -0.3146
     18 H         140.5065  136.3140  163.5774 H       1  UNL1        0.1192
     19 H         142.1143  136.7408  163.4917 H       1  UNL1        0.1192
     20 C         141.6899  139.2109  162.1538 C.2     1  UNL1        0.2402
     21 O         141.2651  139.6972  160.7999 O.2     1  UNL1       -0.2734
     22 N         142.9864  139.6785  162.7459 N.am    1  UNL1       -0.2785
     23 C         143.5398  139.2807  164.0821 C.3     1  UNL1        0.0935
     24 C         144.8525  139.9822  164.2677 C.3     1  UNL1        0.0233
     25 C         145.1105  140.8137  163.0462 C.3     1  UNL1        0.0233
     26 C         143.9572  140.6259  162.1056 C.3     1  UNL1        0.0935
@<TRIPOS>BOND
     1     2     1    1
     2     2     3    1
     3     3     4   ar
     4     4     5   ar
     5     5     8    1
     6     8     9   ar
     7     9    10   ar
     8    10    11   ar
     9    11    12    1
    10    11    13   ar
    11    13    14   ar
    12    14    15    1
    13     5     6   ar
    14     6     7   ar
    15     2    16    1
    16    16    17    1
    17    16    20    1
    18    20    21    2
    19    20    22   am
    20    22    23    1
    21    23    24    1
    22    24    25    1
    23    25    26    1
    24     7     3   ar
    25    26    22    1
    26    14     8   ar
    27    17    18    1
    28    17    19    1
@<TRIPOS>MOLECULE
*****
 26 28 0 0 0
SMALL
GASTEIGER

@<TRIPOS>ATOM
      1 C         138.6872  139.2564  160.8520 C.3     1  UNL1        0.0117
      2 C         138.6193  140.0255  162.1380 C.3     1  UNL1        0.1022
      3 C         139.2690  139.4784  163.3744 C.ar    1  UNL1        0.2379
      4 N         139.5317  140.2367  164.6416 N.ar    1  UNL1       -0.1907
      5 C         140.1951  139.3038  165.6110 C.ar    1  UNL1        0.2041
      6 N         140.3423  137.9689  164.9428 N.ar    1  UNL1       -0.0560
      7 O         139.7700  138.0768  163.5605 O.2     1  UNL1       -0.3370
      8 C         140.6341  139.6458  167.0040 C.ar    1  UNL1        0.0497
      9 C         139.6130  139.9681  168.0543 C.ar    1  UNL1        0.0049
     10 C         140.0521  140.3100  169.4473 C.ar    1  UNL1        0.0115
     11 C         141.5123  140.3297  169.7898 C.ar    1  UNL1        0.0585
     12 CL        141.9514  140.6717  171.1828 Cl      1  UNL1       -0.0822
     13 C         142.5335  140.0074  168.7394 C.ar    1  UNL1        0.0229
     14 C         142.0944  139.6655  167.3465 C.ar    1  UNL1        0.0615
     15 CL        143.1156  139.3431  166.2960 Cl      1  UNL1       -0.0821
     16 C         137.9018  141.3418  162.1876 C.3     1  UNL1        0.1374
     17 N         136.6681  141.4923  163.0277 N.3     1  UNL1       -0.3146
     18 H         136.4631  140.6077  163.4922 H       1  UNL1        0.1192
     19 H         135.8818  141.7544  162.4332 H       1  UNL1        0.1192
     20 C         138.4178  142.5076  161.3973 C.2     1  UNL1        0.2402
     21 O         138.1066  142.6182  159.9341 O.2     1  UNL1       -0.2734
     22 N         139.2449  143.5627  162.0701 N.am    1  UNL1       -0.2785
     23 C         139.6354  143.5867  163.5182 C.3     1  UNL1        0.0935
     24 C         140.4585  144.8178  163.7559 C.3     1  UNL1        0.0233
     25 C         140.5768  145.5548  162.4548 C.3     1  UNL1        0.0233
     26 C         139.8267  144.7791  161.4129 C.3     1  UNL1        0.0935
@<TRIPOS>BOND
     1     2     1    1
     2     2     3    1
     3     3     4   ar
     4     4     5   ar
     5     5     8    1
     6     8     9   ar
     7     9    10   ar
     8    10    11   ar
     9    11    12    1
    10    11    13   ar
    11    13    14   ar
    12    14    15    1
    13     5     6   ar
    14     6     7   ar
    15     2    16    1
    16    16    17    1
    17    16    20    1
    18    20    21    2
    19    20    22   am
    20    22    23    1
    21    23    24    1
    22    24    25    1
    23    25    26    1
    24     7     3   ar
    25    26    22    1
    26    14     8   ar
    27    17    18    1
    28    17    19    1
@<TRIPOS>MOLECULE
*****
 26 28 0 0 0
SMALL
GASTEIGER

@<TRIPOS>ATOM
      1 C         140.3096  139.9123  170.5356 C.3     1  UNL1        0.0117
      2 C         140.2209  140.6122  169.2118 C.3     1  UNL1        0.1022
      3 C         139.5239  139.9516  168.0594 C.ar    1  UNL1        0.2379
      4 N         139.9634  139.9869  166.6257 N.ar    1  UNL1       -0.1907
      5 C         138.9762  139.1970  165.8187 C.ar    1  UNL1        0.2041
      6 N         137.9265  138.6734  166.7536 N.ar    1  UNL1       -0.0560
      7 O         138.2650  139.1398  168.1385 O.2     1  UNL1       -0.3370
      8 C         139.0293  138.9703  164.3368 C.ar    1  UNL1        0.0497
      9 C         138.1350  139.7572  163.4252 C.ar    1  UNL1        0.0049
     10 C         138.1882  139.5305  161.9434 C.ar    1  UNL1        0.0115
     11 C         139.1356  138.5169  161.3732 C.ar    1  UNL1        0.0585
     12 CL        139.1887  138.2903  159.8913 Cl      1  UNL1       -0.0822
     13 C         140.0299  137.7301  162.2848 C.ar    1  UNL1        0.0229
     14 C         139.9767  137.9568  163.7666 C.ar    1  UNL1        0.0615
     15 CL        140.8710  137.1699  164.6783 Cl      1  UNL1       -0.0821
     16 C         140.8291  141.9726  169.0405 C.3     1  UNL1        0.1374
     17 N         140.0676  143.1934  169.4648 N.3     1  UNL1       -0.3146
     18 H         139.1630  142.9148  169.8448 H       1  UNL1        0.1192
     19 H         139.9250  143.8023  168.6590 H       1  UNL1        0.1192
     20 C         142.1986  142.1123  168.4449 C.2     1  UNL1        0.2402
     21 O         143.4129  141.8678  169.2911 O.2     1  UNL1       -0.2734
     22 N         142.3540  142.4964  167.0033 N.am    1  UNL1       -0.2785
     23 C         141.2385  142.7710  166.0388 C.3     1  UNL1        0.0935
     24 C         141.8473  143.1176  164.7126 C.3     1  UNL1        0.0233
     25 C         143.3390  143.0572  164.8572 C.3     1  UNL1        0.0233
     26 C         143.6522  142.6732  166.2730 C.3     1  UNL1        0.0935
@<TRIPOS>BOND
     1     2     1    1
     2     2     3    1
     3     3     4   ar
     4     4     5   ar
     5     5     8    1
     6     8     9   ar
     7     9    10   ar
     8    10    11   ar
     9    11    12    1
    10    11    13   ar
    11    13    14   ar
    12    14    15    1
    13     5     6   ar
    14     6     7   ar
    15     2    16    1
    16    16    17    1
    17    16    20    1
    18    20    21    2
    19    20    22   am
    20    22    23    1
    21    23    24    1
    22    24    25    1
    23    25    26    1
    24     7     3   ar
    25    26    22    1
    26    14     8   ar
    27    17    18    1
    28    17    19    1
@<TRIPOS>MOLECULE
*****
 26 28 0 0 0
SMALL
GASTEIGER

@<TRIPOS>ATOM
      1 C         144.0686  142.3256  161.0529 C.3     1  UNL1        0.0117
      2 C         143.0196  142.5430  162.1028 C.3     1  UNL1        0.1022
      3 C         142.8539  141.5496  163.2144 C.ar    1  UNL1        0.2379
      4 N         142.1916  141.8069  164.5354 N.ar    1  UNL1       -0.1907
      5 C         142.2497  140.5408  165.3376 C.ar    1  UNL1        0.2041
      6 N         142.9480  139.5009  164.5124 N.ar    1  UNL1       -0.0560
      7 O         143.3214  140.1243  163.2001 O.2     1  UNL1       -0.3370
      8 C         141.7052  140.3484  166.7220 C.ar    1  UNL1        0.0497
      9 C         142.6085  139.8824  167.8252 C.ar    1  UNL1        0.0049
     10 C         142.0640  139.6900  169.2095 C.ar    1  UNL1        0.0115
     11 C         140.6162  139.9635  169.4907 C.ar    1  UNL1        0.0585
     12 CL        140.0717  139.7710  170.8751 Cl      1  UNL1       -0.0822
     13 C         139.7129  140.4294  168.3876 C.ar    1  UNL1        0.0229
     14 C         140.2574  140.6218  167.0032 C.ar    1  UNL1        0.0615
     15 CL        139.3541  141.0877  165.9000 Cl      1  UNL1       -0.0821
     16 C         142.1363  143.7538  162.0411 C.3     1  UNL1        0.1374
     17 N         142.7366  145.1255  162.1329 N.3     1  UNL1       -0.3146
     18 H         143.7486  145.0477  162.2334 H       1  UNL1        0.1192
     19 H         142.3510  145.6119  162.9423 H       1  UNL1        0.1192
     20 C         140.6530  143.5930  161.8876 C.2     1  UNL1        0.2402
     21 O         140.0840  143.0756  160.5996 O.2     1  UNL1       -0.2734
     22 N         139.7385  143.9497  163.0218 N.am    1  UNL1       -0.2785
     23 C         140.1596  144.4760  164.3618 C.3     1  UNL1        0.0935
     24 C         138.9237  144.6942  165.1833 C.3     1  UNL1        0.0233
     25 C         137.7388  144.3027  164.3512 C.3     1  UNL1        0.0233
     26 C         138.2423  143.8425  163.0153 C.3     1  UNL1        0.0935
@<TRIPOS>BOND
     1     2     1    1
     2     2     3    1
     3     3     4   ar
     4     4     5   ar
     5     5     8    1
     6     8     9   ar
     7     9    10   ar
     8    10    11   ar
     9    11    12    1
    10    11    13   ar
    11    13    14   ar
    12    14    15    1
    13     5     6   ar
    14     6     7   ar
    15     2    16    1
    16    16    17    1
    17    16    20    1
    18    20    21    2
    19    20    22   am
    20    22    23    1
    21    23    24    1
    22    24    25    1
    23    25    26    1
    24     7     3   ar
    25    26    22    1
    26    14     8   ar
    27    17    18    1
    28    17    19    1
