@<TRIPOS>MOLECULE
*****
 29 33 0 0 0
SMALL
GASTEIGER

@<TRIPOS>ATOM
      1 C         140.2224  139.7368  167.2355 C.ar    1  UNL1       -0.0206
      2 C         141.1953  139.1946  166.2309 C.ar    1  UNL1       -0.0011
      3 C         140.6968  138.4270  165.0424 C.ar    1  UNL1        0.0373
      4 C         139.2252  138.2019  164.8586 C.ar    1  UNL1        0.1477
      5 C         138.2522  138.7442  165.8632 C.ar    1  UNL1        0.0373
      6 C         138.7508  139.5117  167.0516 C.ar    1  UNL1       -0.0011
      7 C         140.7209  140.5044  168.4240 C.3     1  UNL1        0.0437
      8 C         141.0695  141.9568  168.2864 C.3     1  UNL1        0.0768
      9 C         141.2358  145.3397  160.5266 C.3     1  UNL1        0.0948
     10 C         140.1817  145.4680  161.5860 C.2     1  UNL1        0.2261
     11 O         138.9527  146.2877  161.3259 O.2     1  UNL1       -0.2749
     12 N         140.3565  144.7765  162.9056 N.am    1  UNL1       -0.2794
     13 C         139.3929  144.8128  164.0546 C.3     1  UNL1        0.0948
     14 C         139.9665  143.9861  165.1670 C.3     1  UNL1        0.0388
     15 C         139.7255  143.4975  166.5646 C.3     1  UNL1        0.0739
     16 N         140.8946  142.6483  166.9669 N.3     1  UNL1       -0.2723
     17 C         141.8582  142.6119  165.8179 C.3     1  UNL1        0.0739
     18 C         141.2847  143.4387  164.7055 C.3     1  UNL1        0.0388
     19 C         141.5257  143.9272  163.3079 C.3     1  UNL1        0.0948
     20 O         138.7266  137.4344  163.6702 O.3     1  UNL1       -0.4313
     21 C         138.8222  138.0318  162.2976 C.ar    1  UNL1        0.2642
     22 N         139.8859  137.7399  161.2811 N.ar    1  UNL1       -0.1859
     23 C         139.5919  138.5538  160.0558 C.ar    1  UNL1        0.1720
     24 N         140.2974  138.6737  158.7375 N.ar    1  UNL1       -0.2245
     25 C         139.7574  139.5885  157.6785 C.ar    1  UNL1        0.1006
     26 C         138.5121  140.3834  157.9378 C.ar    1  UNL1        0.0213
     27 C         137.8066  140.2635  159.2561 C.ar    1  UNL1        0.0113
     28 C         138.3466  139.3487  160.3151 C.ar    1  UNL1        0.0697
     29 S         137.8709  139.0261  161.7006 S.2     1  UNL1       -0.0267
@<TRIPOS>BOND
     1     9    10    1
     2    10    11    2
     3    10    12   am
     4    12    13    1
     5    13    14    1
     6    14    15    1
     7    15    16    1
     8    16     8    1
     9     8     7    1
    10     7     1    1
    11     1     2   ar
    12     2     3   ar
    13     3     4   ar
    14     4    20    1
    15    20    21    1
    16    21    22   ar
    17    22    23   ar
    18    23    24   ar
    19    24    25   ar
    20    25    26   ar
    21    26    27   ar
    22    27    28   ar
    23    28    29   ar
    24     4     5   ar
    25     5     6   ar
    26    16    17    1
    27    17    18    1
    28    18    19    1
    29    19    12    1
    30    18    14    1
    31     6     1   ar
    32    29    21   ar
    33    28    23   ar
@<TRIPOS>MOLECULE
*****
 29 33 0 0 0
SMALL
GASTEIGER

@<TRIPOS>ATOM
      1 C         138.6535  138.3410  163.0305 C.ar    1  UNL1       -0.0206
      2 C         138.1256  139.6402  163.5627 C.ar    1  UNL1       -0.0011
      3 C         137.9395  139.8256  165.0396 C.ar    1  UNL1        0.0373
      4 C         138.2814  138.7117  165.9842 C.ar    1  UNL1        0.1477
      5 C         138.8094  137.4124  165.4520 C.ar    1  UNL1        0.0373
      6 C         138.9955  137.2271  163.9752 C.ar    1  UNL1       -0.0011
      7 C         138.8396  138.1556  161.5537 C.3     1  UNL1        0.0437
      8 C         139.9403  138.8823  160.8394 C.3     1  UNL1        0.0768
      9 C         144.9247  143.8275  165.5709 C.3     1  UNL1        0.0948
     10 C         143.9697  144.2208  164.4831 C.2     1  UNL1        0.2261
     11 O         143.8082  145.6654  164.1129 O.2     1  UNL1       -0.2749
     12 N         143.1762  143.1694  163.7655 N.am    1  UNL1       -0.2794
     13 C         142.1882  143.4099  162.6627 C.3     1  UNL1        0.0948
     14 C         141.6327  142.0821  162.2403 C.3     1  UNL1        0.0388
     15 C         140.6788  141.4101  161.2977 C.3     1  UNL1        0.0739
     16 N         140.7338  139.9336  161.5569 N.3     1  UNL1       -0.2723
     17 C         141.7217  139.6932  162.6597 C.3     1  UNL1        0.0739
     18 C         142.2773  141.0209  163.0821 C.3     1  UNL1        0.0388
     19 C         143.2312  141.6930  164.0247 C.3     1  UNL1        0.0948
     20 O         138.0953  138.8970  167.4610 O.3     1  UNL1       -0.4313
     21 C         139.0666  139.7334  168.2402 C.ar    1  UNL1        0.2642
     22 N         139.0180  139.9961  169.7162 N.ar    1  UNL1       -0.1859
     23 C         140.1783  140.8790  170.0684 C.ar    1  UNL1        0.1720
     24 N         140.6365  141.4618  171.3724 N.ar    1  UNL1       -0.2245
     25 C         141.8606  142.3275  171.4180 C.ar    1  UNL1        0.1006
     26 C         142.6264  142.6104  170.1597 C.ar    1  UNL1        0.0213
     27 C         142.1683  142.0276  168.8557 C.ar    1  UNL1        0.0113
     28 C         140.9442  141.1619  168.8101 C.ar    1  UNL1        0.0697
     29 S         140.2571  140.4539  167.6802 S.2     1  UNL1       -0.0267
@<TRIPOS>BOND
     1     9    10    1
     2    10    11    2
     3    10    12   am
     4    12    13    1
     5    13    14    1
     6    14    15    1
     7    15    16    1
     8    16     8    1
     9     8     7    1
    10     7     1    1
    11     1     2   ar
    12     2     3   ar
    13     3     4   ar
    14     4    20    1
    15    20    21    1
    16    21    22   ar
    17    22    23   ar
    18    23    24   ar
    19    24    25   ar
    20    25    26   ar
    21    26    27   ar
    22    27    28   ar
    23    28    29   ar
    24     4     5   ar
    25     5     6   ar
    26    16    17    1
    27    17    18    1
    28    18    19    1
    29    19    12    1
    30    18    14    1
    31     6     1   ar
    32    29    21   ar
    33    28    23   ar
@<TRIPOS>MOLECULE
*****
 29 33 0 0 0
SMALL
GASTEIGER

@<TRIPOS>ATOM
      1 C         139.9181  137.8677  162.5533 C.ar    1  UNL1       -0.0206
      2 C         141.4085  137.7708  162.4153 C.ar    1  UNL1       -0.0011
      3 C         142.0551  138.0052  161.0822 C.ar    1  UNL1        0.0373
      4 C         141.2111  138.3365  159.8872 C.ar    1  UNL1        0.1477
      5 C         139.7206  138.4334  160.0253 C.ar    1  UNL1        0.0373
      6 C         139.0741  138.1990  161.3584 C.ar    1  UNL1       -0.0011
      7 C         139.2715  137.6333  163.8864 C.3     1  UNL1        0.0437
      8 C         138.5110  138.7393  164.5560 C.3     1  UNL1        0.0768
      9 C         142.5962  143.1507  170.5172 C.3     1  UNL1        0.0948
     10 C         141.4356  142.2130  170.6709 C.2     1  UNL1        0.2261
     11 O         140.8509  141.9594  172.0288 O.2     1  UNL1       -0.2749
     12 N         140.8596  141.5289  169.4666 N.am    1  UNL1       -0.2794
     13 C         139.7058  140.5703  169.4647 C.3     1  UNL1        0.0948
     14 C         139.4694  140.1322  168.0498 C.3     1  UNL1        0.0388
     15 C         138.6103  139.2690  167.1741 C.3     1  UNL1        0.0739
     16 N         139.0869  139.4234  165.7602 N.3     1  UNL1       -0.2723
     17 C         140.2407  140.3819  165.7621 C.3     1  UNL1        0.0739
     18 C         140.4771  140.8200  167.1771 C.3     1  UNL1        0.0388
     19 C         141.3363  141.6832  168.0528 C.3     1  UNL1        0.0948
     20 O         141.8576  138.5710  158.5542 O.3     1  UNL1       -0.4313
     21 C         142.0177  137.4347  157.5881 C.ar    1  UNL1        0.2642
     22 N         143.0831  136.3799  157.6363 N.ar    1  UNL1       -0.1859
     23 C         142.8644  135.4470  156.4822 C.ar    1  UNL1        0.1720
     24 N         143.6033  134.2239  156.0263 N.ar    1  UNL1       -0.2245
     25 C         143.1417  133.4791  154.8089 C.ar    1  UNL1        0.1006
     26 C         141.9412  133.9575  154.0473 C.ar    1  UNL1        0.0213
     27 C         141.2023  135.1806  154.5032 C.ar    1  UNL1        0.0113
     28 C         141.6639  135.9254  155.7206 C.ar    1  UNL1        0.0697
     29 S         141.1407  137.1539  156.4041 S.2     1  UNL1       -0.0267
@<TRIPOS>BOND
     1     9    10    1
     2    10    11    2
     3    10    12   am
     4    12    13    1
     5    13    14    1
     6    14    15    1
     7    15    16    1
     8    16     8    1
     9     8     7    1
    10     7     1    1
    11     1     2   ar
    12     2     3   ar
    13     3     4   ar
    14     4    20    1
    15    20    21    1
    16    21    22   ar
    17    22    23   ar
    18    23    24   ar
    19    24    25   ar
    20    25    26   ar
    21    26    27   ar
    22    27    28   ar
    23    28    29   ar
    24     4     5   ar
    25     5     6   ar
    26    16    17    1
    27    17    18    1
    28    18    19    1
    29    19    12    1
    30    18    14    1
    31     6     1   ar
    32    29    21   ar
    33    28    23   ar
@<TRIPOS>MOLECULE
*****
 29 33 0 0 0
SMALL
GASTEIGER

@<TRIPOS>ATOM
      1 C         138.8867  140.2643  165.8193 C.ar    1  UNL1       -0.0206
      2 C         140.1315  140.9042  166.3586 C.ar    1  UNL1       -0.0011
      3 C         140.5578  142.2533  165.8602 C.ar    1  UNL1        0.0373
      4 C         139.7391  142.9624  164.8224 C.ar    1  UNL1        0.1477
      5 C         138.4942  142.3224  164.2831 C.ar    1  UNL1        0.0373
      6 C         138.0681  140.9734  164.7816 C.ar    1  UNL1       -0.0011
      7 C         138.4605  138.9152  166.3178 C.3     1  UNL1        0.0437
      8 C         138.6752  137.6990  165.4666 C.3     1  UNL1        0.0768
      9 C         140.9934  138.5773  157.3709 C.3     1  UNL1        0.0948
     10 C         141.8582  138.3833  158.5810 C.2     1  UNL1        0.2261
     11 O         143.3500  138.3240  158.4351 O.2     1  UNL1       -0.2749
     12 N         141.2314  138.2485  159.9370 N.am    1  UNL1       -0.2794
     13 C         141.9636  138.0510  161.2312 C.3     1  UNL1        0.0948
     14 C         140.9470  137.9680  162.3311 C.3     1  UNL1        0.0388
     15 C         140.7713  137.7946  163.8106 C.3     1  UNL1        0.0739
     16 N         139.3021  137.8337  164.1106 N.3     1  UNL1       -0.2723
     17 C         138.5698  138.0312  162.8165 C.3     1  UNL1        0.0739
     18 C         139.5864  138.1142  161.7167 C.3     1  UNL1        0.0388
     19 C         139.7622  138.2876  160.2370 C.3     1  UNL1        0.0948
     20 O         140.1653  144.3114  164.3240 O.3     1  UNL1       -0.4313
     21 C         140.5538  144.4914  162.8864 C.ar    1  UNL1        0.2642
     22 N         141.7030  143.8216  162.1931 N.ar    1  UNL1       -0.1859
     23 C         141.7208  144.2891  160.7679 C.ar    1  UNL1        0.1720
     24 N         142.6263  143.9656  159.6167 N.ar    1  UNL1       -0.2245
     25 C         142.3936  144.6009  158.2780 C.ar    1  UNL1        0.1006
     26 C         141.2554  145.5596  158.0904 C.ar    1  UNL1        0.0213
     27 C         140.3498  145.8831  159.2416 C.ar    1  UNL1        0.0113
     28 C         140.5825  145.2478  160.5803 C.ar    1  UNL1        0.0697
     29 S         139.8613  145.3729  161.8896 S.2     1  UNL1       -0.0267
@<TRIPOS>BOND
     1     9    10    1
     2    10    11    2
     3    10    12   am
     4    12    13    1
     5    13    14    1
     6    14    15    1
     7    15    16    1
     8    16     8    1
     9     8     7    1
    10     7     1    1
    11     1     2   ar
    12     2     3   ar
    13     3     4   ar
    14     4    20    1
    15    20    21    1
    16    21    22   ar
    17    22    23   ar
    18    23    24   ar
    19    24    25   ar
    20    25    26   ar
    21    26    27   ar
    22    27    28   ar
    23    28    29   ar
    24     4     5   ar
    25     5     6   ar
    26    16    17    1
    27    17    18    1
    28    18    19    1
    29    19    12    1
    30    18    14    1
    31     6     1   ar
    32    29    21   ar
    33    28    23   ar
@<TRIPOS>MOLECULE
*****
 29 33 0 0 0
SMALL
GASTEIGER

@<TRIPOS>ATOM
      1 C         139.0985  137.9272  164.6723 C.ar    1  UNL1       -0.0206
      2 C         140.5088  137.4337  164.8042 C.ar    1  UNL1       -0.0011
      3 C         141.3504  137.2318  163.5790 C.ar    1  UNL1        0.0373
      4 C         140.7817  137.5235  162.2220 C.ar    1  UNL1        0.1477
      5 C         139.3713  138.0171  162.0902 C.ar    1  UNL1        0.0373
      6 C         138.5297  138.2189  163.3153 C.ar    1  UNL1       -0.0011
      7 C         138.2568  138.1290  165.8974 C.3     1  UNL1        0.0437
      8 C         138.4798  139.3275  166.7715 C.3     1  UNL1        0.0768
      9 C         143.9535  145.1523  163.9794 C.3     1  UNL1        0.0948
     10 C         144.0802  144.2301  165.1556 C.2     1  UNL1        0.2261
     11 O         145.3098  144.2734  166.0136 O.2     1  UNL1       -0.2749
     12 N         142.9773  143.2646  165.4738 N.am    1  UNL1       -0.2794
     13 C         142.9625  142.2865  166.6111 C.3     1  UNL1        0.0948
     14 C         141.6715  141.5250  166.5508 C.3     1  UNL1        0.0388
     15 C         140.8645  140.4500  167.2164 C.3     1  UNL1        0.0739
     16 N         139.5827  140.2930  166.4533 N.3     1  UNL1       -0.2723
     17 C         139.5975  141.2710  165.3161 C.3     1  UNL1        0.0739
     18 C         140.8884  142.0325  165.3763 C.3     1  UNL1        0.0388
     19 C         141.6954  143.1076  164.7107 C.3     1  UNL1        0.0948
     20 O         141.6233  137.3217  160.9969 O.3     1  UNL1       -0.4313
     21 C         142.3555  138.4820  160.3905 C.ar    1  UNL1        0.2642
     22 N         143.1085  138.4686  159.0932 N.ar    1  UNL1       -0.1859
     23 C         143.6816  139.8377  158.8758 C.ar    1  UNL1        0.1720
     24 N         144.5150  140.4127  157.7692 N.ar    1  UNL1       -0.2245
     25 C         144.9498  141.8472  157.8255 C.ar    1  UNL1        0.1006
     26 C         144.5510  142.7066  158.9884 C.ar    1  UNL1        0.0213
     27 C         143.7176  142.1316  160.0950 C.ar    1  UNL1        0.0113
     28 C         143.2829  140.6971  160.0387 C.ar    1  UNL1        0.0697
     29 S         142.4633  139.8592  160.9748 S.2     1  UNL1       -0.0267
@<TRIPOS>BOND
     1     9    10    1
     2    10    11    2
     3    10    12   am
     4    12    13    1
     5    13    14    1
     6    14    15    1
     7    15    16    1
     8    16     8    1
     9     8     7    1
    10     7     1    1
    11     1     2   ar
    12     2     3   ar
    13     3     4   ar
    14     4    20    1
    15    20    21    1
    16    21    22   ar
    17    22    23   ar
    18    23    24   ar
    19    24    25   ar
    20    25    26   ar
    21    26    27   ar
    22    27    28   ar
    23    28    29   ar
    24     4     5   ar
    25     5     6   ar
    26    16    17    1
    27    17    18    1
    28    18    19    1
    29    19    12    1
    30    18    14    1
    31     6     1   ar
    32    29    21   ar
    33    28    23   ar
@<TRIPOS>MOLECULE
*****
 29 33 0 0 0
SMALL
GASTEIGER

@<TRIPOS>ATOM
      1 C         142.8977  138.5549  165.2250 C.ar    1  UNL1       -0.0206
      2 C         141.6924  137.7725  164.7948 C.ar    1  UNL1       -0.0011
      3 C         141.4883  137.4465  163.3449 C.ar    1  UNL1        0.0373
      4 C         142.4894  137.9028  162.3253 C.ar    1  UNL1        0.1477
      5 C         143.6947  138.6853  162.7557 C.ar    1  UNL1        0.0373
      6 C         143.8988  139.0113  164.2055 C.ar    1  UNL1       -0.0011
      7 C         143.1019  138.8810  166.6749 C.3     1  UNL1        0.0437
      8 C         142.5898  140.1762  167.2317 C.3     1  UNL1        0.0768
      9 C         139.9094  146.2426  161.9686 C.3     1  UNL1        0.0948
     10 C         139.1114  145.1766  162.6591 C.2     1  UNL1        0.2261
     11 O         137.6284  145.0954  162.4492 O.2     1  UNL1       -0.2749
     12 N         139.7964  144.1918  163.5596 N.am    1  UNL1       -0.2794
     13 C         139.1337  143.0771  164.3135 C.3     1  UNL1        0.0948
     14 C         140.1921  142.3452  165.0842 C.3     1  UNL1        0.0388
     15 C         140.4367  141.2040  166.0264 C.3     1  UNL1        0.0739
     16 N         141.9048  141.1610  166.3312 N.3     1  UNL1       -0.2723
     17 C         142.5675  142.2756  165.5774 C.3     1  UNL1        0.0739
     18 C         141.5091  143.0075  164.8067 C.3     1  UNL1        0.0388
     19 C         141.2645  144.1489  163.8644 C.3     1  UNL1        0.0948
     20 O         142.2852  137.5768  160.8755 O.3     1  UNL1       -0.4313
     21 C         141.3947  138.4392  160.0310 C.ar    1  UNL1        0.2642
     22 N         139.8966  138.4854  160.0919 N.ar    1  UNL1       -0.1859
     23 C         139.4219  139.4816  159.0759 C.ar    1  UNL1        0.1720
     24 N         138.0483  139.9437  158.6889 N.ar    1  UNL1       -0.2245
     25 C         137.8794  140.9753  157.6132 C.ar    1  UNL1        0.1006
     26 C         139.0841  141.5448  156.9244 C.ar    1  UNL1        0.0213
     27 C         140.4577  141.0827  157.3113 C.ar    1  UNL1        0.0113
     28 C         140.6266  140.0511  158.3871 C.ar    1  UNL1        0.0697
     29 S         141.8458  139.4069  158.9774 S.2     1  UNL1       -0.0267
@<TRIPOS>BOND
     1     9    10    1
     2    10    11    2
     3    10    12   am
     4    12    13    1
     5    13    14    1
     6    14    15    1
     7    15    16    1
     8    16     8    1
     9     8     7    1
    10     7     1    1
    11     1     2   ar
    12     2     3   ar
    13     3     4   ar
    14     4    20    1
    15    20    21    1
    16    21    22   ar
    17    22    23   ar
    18    23    24   ar
    19    24    25   ar
    20    25    26   ar
    21    26    27   ar
    22    27    28   ar
    23    28    29   ar
    24     4     5   ar
    25     5     6   ar
    26    16    17    1
    27    17    18    1
    28    18    19    1
    29    19    12    1
    30    18    14    1
    31     6     1   ar
    32    29    21   ar
    33    28    23   ar
@<TRIPOS>MOLECULE
*****
 29 33 0 0 0
SMALL
GASTEIGER

@<TRIPOS>ATOM
      1 C         144.7954  141.0793  161.7536 C.ar    1  UNL1       -0.0206
      2 C         143.9979  139.8115  161.6720 C.ar    1  UNL1       -0.0011
      3 C         143.7973  138.9714  162.8984 C.ar    1  UNL1        0.0373
      4 C         144.3944  139.3990  164.2063 C.ar    1  UNL1        0.1477
      5 C         145.1920  140.6668  164.2879 C.ar    1  UNL1        0.0373
      6 C         145.3925  141.5069  163.0615 C.ar    1  UNL1       -0.0011
      7 C         144.9959  141.9195  160.5272 C.3     1  UNL1        0.0437
      8 C         143.9811  142.9601  160.1569 C.3     1  UNL1        0.0768
      9 C         136.9195  143.8867  164.7352 C.3     1  UNL1        0.0948
     10 C         138.2508  144.5542  164.9143 C.2     1  UNL1        0.2261
     11 O         138.4536  145.5356  166.0305 O.2     1  UNL1       -0.2749
     12 N         139.3793  144.2402  163.9774 N.am    1  UNL1       -0.2794
     13 C         140.7593  144.8259  164.0317 C.3     1  UNL1        0.0948
     14 C         141.5589  144.2332  162.9095 C.3     1  UNL1        0.0388
     15 C         142.9058  144.2288  162.2495 C.3     1  UNL1        0.0739
     16 N         142.8526  143.2741  161.0938 N.3     1  UNL1       -0.2723
     17 C         141.4728  142.6884  161.0395 C.3     1  UNL1        0.0739
     18 C         140.6732  143.2811  162.1616 C.3     1  UNL1        0.0388
     19 C         139.3261  143.2855  162.8217 C.3     1  UNL1        0.0948
     20 O         144.1939  138.5589  165.4327 O.3     1  UNL1       -0.4313
     21 C         143.1912  138.9719  166.4690 C.ar    1  UNL1        0.2642
     22 N         143.3251  138.7811  167.9508 N.ar    1  UNL1       -0.1859
     23 C         142.0951  139.3395  168.6031 C.ar    1  UNL1        0.1720
     24 N         141.6738  139.4291  170.0399 N.ar    1  UNL1       -0.2245
     25 C         140.3584  140.0548  170.3981 C.ar    1  UNL1        0.1006
     26 C         139.4644  140.5907  169.3194 C.ar    1  UNL1        0.0213
     27 C         139.8857  140.5010  167.8827 C.ar    1  UNL1        0.0113
     28 C         141.2011  139.8754  167.5245 C.ar    1  UNL1        0.0697
     29 S         141.8785  139.6482  166.2056 S.2     1  UNL1       -0.0267
@<TRIPOS>BOND
     1     9    10    1
     2    10    11    2
     3    10    12   am
     4    12    13    1
     5    13    14    1
     6    14    15    1
     7    15    16    1
     8    16     8    1
     9     8     7    1
    10     7     1    1
    11     1     2   ar
    12     2     3   ar
    13     3     4   ar
    14     4    20    1
    15    20    21    1
    16    21    22   ar
    17    22    23   ar
    18    23    24   ar
    19    24    25   ar
    20    25    26   ar
    21    26    27   ar
    22    27    28   ar
    23    28    29   ar
    24     4     5   ar
    25     5     6   ar
    26    16    17    1
    27    17    18    1
    28    18    19    1
    29    19    12    1
    30    18    14    1
    31     6     1   ar
    32    29    21   ar
    33    28    23   ar
@<TRIPOS>MOLECULE
*****
 29 33 0 0 0
SMALL
GASTEIGER

@<TRIPOS>ATOM
      1 C         140.5408  139.7406  166.8748 C.ar    1  UNL1       -0.0206
      2 C         141.8143  139.1421  166.3553 C.ar    1  UNL1       -0.0011
      3 C         141.7950  138.2970  165.1161 C.ar    1  UNL1        0.0373
      4 C         140.5021  138.0504  164.3965 C.ar    1  UNL1        0.1477
      5 C         139.2286  138.6490  164.9161 C.ar    1  UNL1        0.0373
      6 C         139.2479  139.4941  166.1552 C.ar    1  UNL1       -0.0011
      7 C         140.5601  140.5858  168.1140 C.3     1  UNL1        0.0437
      8 C         140.7489  142.0699  168.0067 C.3     1  UNL1        0.0768
      9 C         141.3222  145.2199  160.1687 C.3     1  UNL1        0.0948
     10 C         140.2821  145.4872  161.2159 C.2     1  UNL1        0.2261
     11 O         139.1500  146.4275  160.9257 O.2     1  UNL1       -0.2749
     12 N         140.3740  144.8142  162.5532 N.am    1  UNL1       -0.2794
     13 C         139.4134  144.9827  163.6930 C.3     1  UNL1        0.0948
     14 C         139.8884  144.1272  164.8299 C.3     1  UNL1        0.0388
     15 C         139.5883  143.7026  166.2369 C.3     1  UNL1        0.0739
     16 N         140.6569  142.7429  166.6694 N.3     1  UNL1       -0.2723
     17 C         141.6175  142.5744  165.5297 C.3     1  UNL1        0.0739
     18 C         141.1425  143.4299  164.3928 C.3     1  UNL1        0.0388
     19 C         141.4427  143.8545  162.9857 C.3     1  UNL1        0.0948
     20 O         140.4828  137.2054  163.1574 O.3     1  UNL1       -0.4313
     21 C         140.9235  137.7862  161.8465 C.ar    1  UNL1        0.2642
     22 N         142.3194  137.7661  161.2980 N.ar    1  UNL1       -0.1859
     23 C         142.3042  138.4566  159.9664 C.ar    1  UNL1        0.1720
     24 N         143.3885  138.7361  158.9684 N.ar    1  UNL1       -0.2245
     25 C         143.0675  139.4626  157.6959 C.ar    1  UNL1        0.1006
     26 C         141.6621  139.9094  157.4215 C.ar    1  UNL1        0.0213
     27 C         140.5778  139.6299  158.4195 C.ar    1  UNL1        0.0113
     28 C         140.8989  138.9034  159.6920 C.ar    1  UNL1        0.0697
     29 S         140.0455  138.4891  160.8540 S.2     1  UNL1       -0.0267
@<TRIPOS>BOND
     1     9    10    1
     2    10    11    2
     3    10    12   am
     4    12    13    1
     5    13    14    1
     6    14    15    1
     7    15    16    1
     8    16     8    1
     9     8     7    1
    10     7     1    1
    11     1     2   ar
    12     2     3   ar
    13     3     4   ar
    14     4    20    1
    15    20    21    1
    16    21    22   ar
    17    22    23   ar
    18    23    24   ar
    19    24    25   ar
    20    25    26   ar
    21    26    27   ar
    22    27    28   ar
    23    28    29   ar
    24     4     5   ar
    25     5     6   ar
    26    16    17    1
    27    17    18    1
    28    18    19    1
    29    19    12    1
    30    18    14    1
    31     6     1   ar
    32    29    21   ar
    33    28    23   ar
@<TRIPOS>MOLECULE
*****
 29 33 0 0 0
SMALL
GASTEIGER

@<TRIPOS>ATOM
      1 C         141.7981  139.3577  166.7655 C.ar    1  UNL1       -0.0206
      2 C         142.8823  138.6540  166.0045 C.ar    1  UNL1       -0.0011
      3 C         142.5499  137.8959  164.7535 C.ar    1  UNL1        0.0373
      4 C         141.1331  137.8415  164.2637 C.ar    1  UNL1        0.1477
      5 C         140.0489  138.5452  165.0248 C.ar    1  UNL1        0.0373
      6 C         140.3814  139.3033  166.2757 C.ar    1  UNL1       -0.0011
      7 C         142.1306  140.1159  168.0164 C.3     1  UNL1        0.0437
      8 C         142.1460  141.6157  168.0027 C.3     1  UNL1        0.0768
      9 C         141.0742  145.4538  160.5323 C.3     1  UNL1        0.0948
     10 C         140.1336  145.3871  161.6988 C.2     1  UNL1        0.2261
     11 O         138.7967  146.0631  161.6238 O.2     1  UNL1       -0.2749
     12 N         140.5300  144.6444  162.9402 N.am    1  UNL1       -0.2794
     13 C         139.6991  144.4924  164.1799 C.3     1  UNL1        0.0948
     14 C         140.4823  143.6773  165.1659 C.3     1  UNL1        0.0388
     15 C         140.4529  143.0796  166.5413 C.3     1  UNL1        0.0739
     16 N         141.7497  142.3584  166.7612 N.3     1  UNL1       -0.2723
     17 C         142.5806  142.5104  165.5216 C.3     1  UNL1        0.0739
     18 C         141.7973  143.3255  164.5356 C.3     1  UNL1        0.0388
     19 C         141.8267  143.9232  163.1601 C.3     1  UNL1        0.0948
     20 O         140.8006  137.0834  163.0129 O.3     1  UNL1       -0.4313
     21 C         140.5917  137.8196  161.7228 C.ar    1  UNL1        0.2642
     22 N         139.2718  138.0774  161.0585 N.ar    1  UNL1       -0.1859
     23 C         139.5303  138.8445  159.7956 C.ar    1  UNL1        0.1720
     24 N         138.6095  139.3739  158.7365 N.ar    1  UNL1       -0.2245
     25 C         139.1685  140.1197  157.5612 C.ar    1  UNL1        0.1006
     26 C         140.6483  140.3359  157.4450 C.ar    1  UNL1        0.0213
     27 C         141.5691  139.8065  158.5041 C.ar    1  UNL1        0.0113
     28 C         141.0101  139.0607  159.6794 C.ar    1  UNL1        0.0697
     29 S         141.6661  138.4273  160.8705 S.2     1  UNL1       -0.0267
@<TRIPOS>BOND
     1     9    10    1
     2    10    11    2
     3    10    12   am
     4    12    13    1
     5    13    14    1
     6    14    15    1
     7    15    16    1
     8    16     8    1
     9     8     7    1
    10     7     1    1
    11     1     2   ar
    12     2     3   ar
    13     3     4   ar
    14     4    20    1
    15    20    21    1
    16    21    22   ar
    17    22    23   ar
    18    23    24   ar
    19    24    25   ar
    20    25    26   ar
    21    26    27   ar
    22    27    28   ar
    23    28    29   ar
    24     4     5   ar
    25     5     6   ar
    26    16    17    1
    27    17    18    1
    28    18    19    1
    29    19    12    1
    30    18    14    1
    31     6     1   ar
    32    29    21   ar
    33    28    23   ar
