@<TRIPOS>MOLECULE
*****
 29 33 0 0 0
SMALL
GASTEIGER

@<TRIPOS>ATOM
      1 C         138.8362  140.6775  164.0772 C.ar    1  UNL1        0.0213
      2 C         138.1403  139.6778  163.2018 C.ar    1  UNL1        0.1006
      3 N         138.0080  139.9337  161.7298 N.ar    1  UNL1       -0.2246
      4 C         138.5717  141.1892  161.1331 C.ar    1  UNL1        0.1702
      5 N         138.5935  141.7101  159.7266 N.ar    1  UNL1       -0.2052
      6 C         139.3029  143.0317  159.7328 C.ar    1  UNL1        0.1647
      7 S         139.7195  143.3276  161.1431 S.2     1  UNL1       -0.0499
      8 C         139.2676  142.1888  162.0085 C.ar    1  UNL1        0.0679
      9 C         139.3999  141.9330  163.4806 C.ar    1  UNL1        0.0112
     10 C         139.2331  139.9099  168.4936 C.ar    1  UNL1        0.2250
     11 C         140.0133  141.0189  167.8520 C.ar    1  UNL1        0.0577
     12 C         139.8810  141.2747  166.3798 C.ar    1  UNL1        0.0064
     13 C         138.9686  140.4216  165.5494 C.ar    1  UNL1        0.0209
     14 C         138.1884  139.3127  166.1910 C.ar    1  UNL1        0.1021
     15 N         138.3207  139.0568  167.6630 N.ar    1  UNL1       -0.2101
     16 C         140.4569  140.3224  170.7479 C.3     1  UNL1        0.2542
     17 O         139.3654  139.6541  169.9656 O.3     1  UNL1       -0.4561
     18 N         139.5520  143.9044  158.5384 N.pl3   1  UNL1       -0.2880
     19 C         139.0507  143.4876  157.1874 C.3     1  UNL1        0.0940
     20 C         139.2998  144.3601  155.9930 C.3     1  UNL1        0.0375
     21 C         140.0500  145.6495  156.1496 C.3     1  UNL1        0.0609
     22 C         140.5513  146.0663  157.5005 C.3     1  UNL1        0.0375
     23 C         140.3022  145.1937  158.6949 C.3     1  UNL1        0.0940
     24 N         140.2991  146.5221  154.9552 N.3     1  UNL1       -0.2738
     25 C         141.1724  146.0329  153.8380 C.3     1  UNL1        0.0720
     26 C         141.4215  146.9055  152.6437 C.3     1  UNL1        0.0174
     27 C         140.7973  148.2672  152.5664 C.3     1  UNL1        0.0029
     28 C         139.9240  148.7564  153.6836 C.3     1  UNL1        0.0174
     29 C         139.6749  147.8838  154.8780 C.3     1  UNL1        0.0720
@<TRIPOS>BOND
     1    16    17    1
     2    17    10    1
     3    10    11   ar
     4    11    12   ar
     5    12    13   ar
     6    13     1    1
     7     1     2   ar
     8     2     3   ar
     9     3     4   ar
    10     4     5   ar
    11     5     6   ar
    12     6    18    1
    13    18    19    1
    14    19    20    1
    15    20    21    1
    16    21    24    1
    17    24    25    1
    18    25    26    1
    19    26    27    1
    20    27    28    1
    21    28    29    1
    22    21    22    1
    23    22    23    1
    24     6     7   ar
    25     7     8   ar
    26     8     9   ar
    27    13    14   ar
    28    14    15   ar
    29    15    10   ar
    30     9     1   ar
    31     8     4   ar
    32    23    18    1
    33    29    24    1
@<TRIPOS>MOLECULE
*****
 29 33 0 0 0
SMALL
GASTEIGER

@<TRIPOS>ATOM
      1 C         138.8199  140.7582  163.6912 C.ar    1  UNL1        0.0213
      2 C         138.0703  139.7987  162.8152 C.ar    1  UNL1        0.1006
      3 N         137.9205  140.0813  161.3497 N.ar    1  UNL1       -0.2246
      4 C         138.5204  141.3233  160.7602 C.ar    1  UNL1        0.1702
      5 N         138.5359  141.8638  159.3610 N.ar    1  UNL1       -0.2052
      6 C         139.2952  143.1574  159.3723 C.ar    1  UNL1        0.1647
      7 S         139.7489  143.4163  160.7784 S.2     1  UNL1       -0.0499
      8 C         139.2701  142.2828  161.6361 C.ar    1  UNL1        0.0679
      9 C         139.4198  142.0003  163.1016 C.ar    1  UNL1        0.0112
     10 C         139.2693  139.9108  168.0878 C.ar    1  UNL1        0.2250
     11 C         138.3103  139.1047  167.2628 C.ar    1  UNL1        0.0577
     12 C         138.1605  139.3872  165.7972 C.ar    1  UNL1        0.0064
     13 C         138.9697  140.4758  165.1567 C.ar    1  UNL1        0.0209
     14 C         139.9286  141.2819  165.9817 C.ar    1  UNL1        0.1021
     15 N         140.0784  140.9994  167.4472 N.ar    1  UNL1       -0.2101
     16 C         140.1350  140.6070  170.4363 C.3     1  UNL1        0.2542
     17 O         139.4191  139.6284  169.5533 O.3     1  UNL1       -0.4561
     18 N         139.5551  144.0377  158.1858 N.pl3   1  UNL1       -0.2880
     19 C         140.3192  145.3174  158.3544 C.3     1  UNL1        0.0940
     20 C         140.5791  146.1976  157.1680 C.3     1  UNL1        0.0375
     21 C         140.0749  145.7981  155.8129 C.3     1  UNL1        0.0609
     22 C         139.3108  144.5183  155.6443 C.3     1  UNL1        0.0375
     23 C         139.0509  143.6381  156.8307 C.3     1  UNL1        0.0940
     24 N         140.3348  146.6783  154.6264 N.3     1  UNL1       -0.2738
     25 C         139.7320  148.0504  154.5642 C.3     1  UNL1        0.0720
     26 C         139.9919  148.9306  153.3777 C.3     1  UNL1        0.0174
     27 C         140.8546  148.4387  152.2536 C.3     1  UNL1        0.0029
     28 C         141.4574  147.0666  152.3159 C.3     1  UNL1        0.0174
     29 C         141.1975  146.1864  153.5023 C.3     1  UNL1        0.0720
@<TRIPOS>BOND
     1    16    17    1
     2    17    10    1
     3    10    11   ar
     4    11    12   ar
     5    12    13   ar
     6    13     1    1
     7     1     2   ar
     8     2     3   ar
     9     3     4   ar
    10     4     5   ar
    11     5     6   ar
    12     6    18    1
    13    18    19    1
    14    19    20    1
    15    20    21    1
    16    21    24    1
    17    24    25    1
    18    25    26    1
    19    26    27    1
    20    27    28    1
    21    28    29    1
    22    21    22    1
    23    22    23    1
    24     6     7   ar
    25     7     8   ar
    26     8     9   ar
    27    13    14   ar
    28    14    15   ar
    29    15    10   ar
    30     9     1   ar
    31     8     4   ar
    32    23    18    1
    33    29    24    1
@<TRIPOS>MOLECULE
*****
 29 33 0 0 0
SMALL
GASTEIGER

@<TRIPOS>ATOM
      1 C         139.9823  145.3676  157.2337 C.ar    1  UNL1        0.0213
      2 C         139.5606  143.9458  157.0092 C.ar    1  UNL1        0.1006
      3 N         139.5755  142.9703  158.1485 N.ar    1  UNL1       -0.2246
      4 C         140.0119  143.4167  159.5124 C.ar    1  UNL1        0.1702
      5 N         140.1294  142.6867  160.8176 N.ar    1  UNL1       -0.2052
      6 C         140.6237  143.6575  161.8488 C.ar    1  UNL1        0.1647
      7 S         140.8116  144.9874  161.1809 S.2     1  UNL1       -0.0499
      8 C         140.4335  144.8386  159.7370 C.ar    1  UNL1        0.0679
      9 C         140.4187  145.8140  158.5976 C.ar    1  UNL1        0.0112
     10 C         139.9379  148.2942  153.8156 C.ar    1  UNL1        0.2250
     11 C         139.1062  148.5544  155.0365 C.ar    1  UNL1        0.0577
     12 C         139.1210  147.5788  156.1759 C.ar    1  UNL1        0.0064
     13 C         139.9675  146.3432  156.0943 C.ar    1  UNL1        0.0209
     14 C         140.7991  146.0830  154.8734 C.ar    1  UNL1        0.1021
     15 N         140.7843  147.0585  153.7341 N.ar    1  UNL1       -0.2101
     16 C         139.5212  150.6951  152.9145 C.3     1  UNL1        0.2542
     17 O         139.9231  149.2697  152.6762 O.3     1  UNL1       -0.4561
     18 N         140.8842  143.3520  163.2941 N.pl3   1  UNL1       -0.2880
     19 C         139.8043  143.5672  164.3126 C.3     1  UNL1        0.0940
     20 C         140.0648  143.2618  165.7579 C.3     1  UNL1        0.0375
     21 C         141.4052  142.7411  166.1846 C.3     1  UNL1        0.0609
     22 C         142.4851  142.5259  165.1660 C.3     1  UNL1        0.0375
     23 C         142.2246  142.8314  163.7208 C.3     1  UNL1        0.0940
     24 N         141.6658  142.4357  167.6299 N.3     1  UNL1       -0.2738
     25 C         140.5337  142.4434  168.6140 C.3     1  UNL1        0.0720
     26 C         140.7942  142.1379  170.0592 C.3     1  UNL1        0.0174
     27 C         142.1868  141.8248  170.5204 C.3     1  UNL1        0.0029
     28 C         143.3188  141.8171  169.5363 C.3     1  UNL1        0.0174
     29 C         143.0583  142.1226  168.0911 C.3     1  UNL1        0.0720
@<TRIPOS>BOND
     1    16    17    1
     2    17    10    1
     3    10    11   ar
     4    11    12   ar
     5    12    13   ar
     6    13     1    1
     7     1     2   ar
     8     2     3   ar
     9     3     4   ar
    10     4     5   ar
    11     5     6   ar
    12     6    18    1
    13    18    19    1
    14    19    20    1
    15    20    21    1
    16    21    24    1
    17    24    25    1
    18    25    26    1
    19    26    27    1
    20    27    28    1
    21    28    29    1
    22    21    22    1
    23    22    23    1
    24     6     7   ar
    25     7     8   ar
    26     8     9   ar
    27    13    14   ar
    28    14    15   ar
    29    15    10   ar
    30     9     1   ar
    31     8     4   ar
    32    23    18    1
    33    29    24    1
@<TRIPOS>MOLECULE
*****
 29 33 0 0 0
SMALL
GASTEIGER

@<TRIPOS>ATOM
      1 C         140.3846  139.6013  163.1987 C.ar    1  UNL1        0.0213
      2 C         139.6310  138.8625  162.1327 C.ar    1  UNL1        0.1006
      3 N         140.1261  138.8775  160.7169 N.ar    1  UNL1       -0.2246
      4 C         141.3749  139.6313  160.3671 C.ar    1  UNL1        0.1702
      5 N         142.0996  139.8250  159.0681 N.ar    1  UNL1       -0.2052
      6 C         143.3011  140.6836  159.3312 C.ar    1  UNL1        0.1647
      7 S         143.3190  141.0204  160.7929 S.2     1  UNL1       -0.0499
      8 C         142.1285  140.3700  161.4330 C.ar    1  UNL1        0.0679
      9 C         141.6334  140.3550  162.8488 C.ar    1  UNL1        0.0112
     10 C         138.8991  139.5563  167.4462 C.ar    1  UNL1        0.2250
     11 C         140.1087  140.3657  167.0833 C.ar    1  UNL1        0.0577
     12 C         140.6038  140.3807  165.6674 C.ar    1  UNL1        0.0064
     13 C         139.8894  139.5863  164.6146 C.ar    1  UNL1        0.0209
     14 C         138.6798  138.7769  164.9775 C.ar    1  UNL1        0.1021
     15 N         138.1846  138.7619  166.3933 N.ar    1  UNL1       -0.2101
     16 C         139.0791  140.3858  169.9017 C.3     1  UNL1        0.2542
     17 O         138.4039  139.5413  168.8620 O.3     1  UNL1       -0.4561
     18 N         144.3081  141.1274  158.3118 N.pl3   1  UNL1       -0.2880
     19 C         145.1481  142.3435  158.5675 C.3     1  UNL1        0.0940
     20 C         146.1550  142.7874  157.5482 C.3     1  UNL1        0.0375
     21 C         146.3218  142.0152  156.2731 C.3     1  UNL1        0.0609
     22 C         145.4818  140.7991  156.0174 C.3     1  UNL1        0.0375
     23 C         144.4749  140.3552  157.0368 C.3     1  UNL1        0.0940
     24 N         147.3288  142.4590  155.2537 N.3     1  UNL1       -0.2738
     25 C         147.0148  143.6060  154.3395 C.3     1  UNL1        0.0720
     26 C         148.0217  144.0499  153.3201 C.3     1  UNL1        0.0174
     27 C         149.3424  143.3467  153.2149 C.3     1  UNL1        0.0029
     28 C         149.6564  142.1997  154.1291 C.3     1  UNL1        0.0174
     29 C         148.6495  141.7559  155.1485 C.3     1  UNL1        0.0720
@<TRIPOS>BOND
     1    16    17    1
     2    17    10    1
     3    10    11   ar
     4    11    12   ar
     5    12    13   ar
     6    13     1    1
     7     1     2   ar
     8     2     3   ar
     9     3     4   ar
    10     4     5   ar
    11     5     6   ar
    12     6    18    1
    13    18    19    1
    14    19    20    1
    15    20    21    1
    16    21    24    1
    17    24    25    1
    18    25    26    1
    19    26    27    1
    20    27    28    1
    21    28    29    1
    22    21    22    1
    23    22    23    1
    24     6     7   ar
    25     7     8   ar
    26     8     9   ar
    27    13    14   ar
    28    14    15   ar
    29    15    10   ar
    30     9     1   ar
    31     8     4   ar
    32    23    18    1
    33    29    24    1
@<TRIPOS>MOLECULE
*****
 29 33 0 0 0
SMALL
GASTEIGER

@<TRIPOS>ATOM
      1 C         140.4299  141.2180  164.6321 C.ar    1  UNL1        0.0213
      2 C         140.4983  142.4871  163.8354 C.ar    1  UNL1        0.1006
      3 N         140.6599  142.4294  162.3453 N.ar    1  UNL1       -0.2246
      4 C         140.7531  141.1025  161.6518 C.ar    1  UNL1        0.1702
      5 N         140.9141  140.7345  160.2066 N.ar    1  UNL1       -0.2052
      6 C         140.9453  139.2379  160.1101 C.ar    1  UNL1        0.1647
      7 S         140.8035  138.6811  161.4957 S.2     1  UNL1       -0.0499
      8 C         140.6847  139.8335  162.4485 C.ar    1  UNL1        0.0679
      9 C         140.5231  139.8912  163.9386 C.ar    1  UNL1        0.0112
     10 C         139.9451  141.3912  169.1026 C.ar    1  UNL1        0.2250
     11 C         139.5699  140.1460  168.3552 C.ar    1  UNL1        0.0577
     12 C         139.7315  140.0883  166.8650 C.ar    1  UNL1        0.0064
     13 C         140.2683  141.2757  166.1223 C.ar    1  UNL1        0.0209
     14 C         140.6436  142.5210  166.8697 C.ar    1  UNL1        0.1021
     15 N         140.4820  142.5787  168.3598 N.ar    1  UNL1       -0.2101
     16 C         140.9942  141.4855  171.4775 C.3     1  UNL1        0.2542
     17 O         139.7836  141.4489  170.5927 O.3     1  UNL1       -0.4561
     18 N         141.0924  138.4385  158.8494 N.pl3   1  UNL1       -0.2880
     19 C         139.9233  138.2759  157.9237 C.3     1  UNL1        0.0940
     20 C         140.0704  137.4765  156.6630 C.3     1  UNL1        0.0375
     21 C         141.3865  136.8398  156.3280 C.3     1  UNL1        0.0609
     22 C         142.5556  137.0024  157.2537 C.3     1  UNL1        0.0375
     23 C         142.4085  137.8017  158.5144 C.3     1  UNL1        0.0940
     24 N         141.5337  136.0404  155.0673 N.3     1  UNL1       -0.2738
     25 C         141.7816  134.5628  155.1408 C.3     1  UNL1        0.0720
     26 C         141.9287  133.7634  153.8802 C.3     1  UNL1        0.0174
     27 C         141.8279  134.4415  152.5460 C.3     1  UNL1        0.0029
     28 C         141.5800  135.9190  152.4725 C.3     1  UNL1        0.0174
     29 C         141.4328  136.7185  153.7332 C.3     1  UNL1        0.0720
@<TRIPOS>BOND
     1    16    17    1
     2    17    10    1
     3    10    11   ar
     4    11    12   ar
     5    12    13   ar
     6    13     1    1
     7     1     2   ar
     8     2     3   ar
     9     3     4   ar
    10     4     5   ar
    11     5     6   ar
    12     6    18    1
    13    18    19    1
    14    19    20    1
    15    20    21    1
    16    21    24    1
    17    24    25    1
    18    25    26    1
    19    26    27    1
    20    27    28    1
    21    28    29    1
    22    21    22    1
    23    22    23    1
    24     6     7   ar
    25     7     8   ar
    26     8     9   ar
    27    13    14   ar
    28    14    15   ar
    29    15    10   ar
    30     9     1   ar
    31     8     4   ar
    32    23    18    1
    33    29    24    1
@<TRIPOS>MOLECULE
*****
 29 33 0 0 0
SMALL
GASTEIGER

@<TRIPOS>ATOM
      1 C         140.3029  138.9428  164.1894 C.ar    1  UNL1        0.0213
      2 C         139.5071  137.8990  163.4633 C.ar    1  UNL1        0.1006
      3 N         139.7800  137.6208  162.0149 N.ar    1  UNL1       -0.2246
      4 C         140.8487  138.3863  161.2925 C.ar    1  UNL1        0.1702
      5 N         141.3395  138.3313  159.8761 N.ar    1  UNL1       -0.2052
      6 C         142.4386  139.3410  159.7268 C.ar    1  UNL1        0.1647
      7 S         142.6271  140.0201  161.0510 S.2     1  UNL1       -0.0499
      8 C         141.6445  139.4301  162.0186 C.ar    1  UNL1        0.0679
      9 C         141.3716  139.7083  163.4670 C.ar    1  UNL1        0.0112
     10 C         139.4841  139.7776  168.5349 C.ar    1  UNL1        0.2250
     11 C         140.8356  140.0745  167.9558 C.ar    1  UNL1        0.0577
     12 C         141.1085  139.7962  166.5073 C.ar    1  UNL1        0.0064
     13 C         140.0299  139.2211  165.6379 C.ar    1  UNL1        0.0209
     14 C         138.6785  138.9241  166.2170 C.ar    1  UNL1        0.1021
     15 N         138.4055  139.2024  167.6654 N.ar    1  UNL1       -0.2101
     16 C         140.3289  140.4801  170.8891 C.3     1  UNL1        0.2542
     17 O         139.2111  140.0559  169.9833 O.3     1  UNL1       -0.4561
     18 N         143.2133  139.6224  158.4734 N.pl3   1  UNL1       -0.2880
     19 C         144.1728  140.7744  158.4275 C.3     1  UNL1        0.0940
     20 C         144.9474  141.0558  157.1742 C.3     1  UNL1        0.0375
     21 C         144.7625  140.1851  155.9669 C.3     1  UNL1        0.0609
     22 C         143.8030  139.0331  156.0128 C.3     1  UNL1        0.0375
     23 C         143.0283  138.7517  157.2661 C.3     1  UNL1        0.0940
     24 N         145.5372  140.4665  154.7135 N.3     1  UNL1       -0.2738
     25 C         146.6816  141.4357  154.7409 C.3     1  UNL1        0.0720
     26 C         147.4562  141.7171  153.4876 C.3     1  UNL1        0.0174
     27 C         147.0864  141.0292  152.2070 C.3     1  UNL1        0.0029
     28 C         145.9420  140.0599  152.1797 C.3     1  UNL1        0.0174
     29 C         145.1673  139.7786  153.4329 C.3     1  UNL1        0.0720
@<TRIPOS>BOND
     1    16    17    1
     2    17    10    1
     3    10    11   ar
     4    11    12   ar
     5    12    13   ar
     6    13     1    1
     7     1     2   ar
     8     2     3   ar
     9     3     4   ar
    10     4     5   ar
    11     5     6   ar
    12     6    18    1
    13    18    19    1
    14    19    20    1
    15    20    21    1
    16    21    24    1
    17    24    25    1
    18    25    26    1
    19    26    27    1
    20    27    28    1
    21    28    29    1
    22    21    22    1
    23    22    23    1
    24     6     7   ar
    25     7     8   ar
    26     8     9   ar
    27    13    14   ar
    28    14    15   ar
    29    15    10   ar
    30     9     1   ar
    31     8     4   ar
    32    23    18    1
    33    29    24    1
@<TRIPOS>MOLECULE
*****
 29 33 0 0 0
SMALL
GASTEIGER

@<TRIPOS>ATOM
      1 C         143.3241  140.1834  164.6196 C.ar    1  UNL1        0.0213
      2 C         144.5802  140.6770  163.9650 C.ar    1  UNL1        0.1006
      3 N         144.7940  140.4635  162.4958 N.ar    1  UNL1       -0.2246
      4 C         143.7517  139.7564  161.6812 C.ar    1  UNL1        0.1702
      5 N         143.6850  139.4034  160.2247 N.ar    1  UNL1       -0.2052
      6 C         142.3876  138.6917  159.9793 C.ar    1  UNL1        0.1647
      7 S         141.6526  138.6047  161.2840 S.2     1  UNL1       -0.0499
      8 C         142.4956  139.2628  162.3358 C.ar    1  UNL1        0.0679
      9 C         142.2818  139.4763  163.8050 C.ar    1  UNL1        0.0112
     10 C         142.6826  140.8238  169.0274 C.ar    1  UNL1        0.2250
     11 C         142.8117  142.0029  168.1092 C.ar    1  UNL1        0.0577
     12 C         143.0256  141.7894  166.6399 C.ar    1  UNL1        0.0064
     13 C         143.1103  140.3969  166.0889 C.ar    1  UNL1        0.0209
     14 C         142.9812  139.2178  167.0071 C.ar    1  UNL1        0.1021
     15 N         142.7674  139.4312  168.4763 N.ar    1  UNL1       -0.2101
     16 C         141.1465  140.6993  171.1189 C.3     1  UNL1        0.2542
     17 O         142.4688  141.0372  170.4967 O.3     1  UNL1       -0.4561
     18 N         141.9093  138.1601  158.6607 N.pl3   1  UNL1       -0.2880
     19 C         140.5173  138.4625  158.1906 C.3     1  UNL1        0.0940
     20 C         140.0389  137.9310  156.8721 C.3     1  UNL1        0.0375
     21 C         140.9525  137.0972  156.0236 C.3     1  UNL1        0.0609
     22 C         142.3445  136.7948  156.4936 C.3     1  UNL1        0.0375
     23 C         142.8229  137.3263  157.8122 C.3     1  UNL1        0.0940
     24 N         140.4741  136.5656  154.7049 N.3     1  UNL1       -0.2738
     25 C         141.1177  135.3489  154.1088 C.3     1  UNL1        0.0720
     26 C         140.6393  134.8173  152.7902 C.3     1  UNL1        0.0174
     27 C         139.5175  135.5025  152.0678 C.3     1  UNL1        0.0029
     28 C         138.8739  136.7193  152.6640 C.3     1  UNL1        0.0174
     29 C         139.3523  137.2508  153.9825 C.3     1  UNL1        0.0720
@<TRIPOS>BOND
     1    16    17    1
     2    17    10    1
     3    10    11   ar
     4    11    12   ar
     5    12    13   ar
     6    13     1    1
     7     1     2   ar
     8     2     3   ar
     9     3     4   ar
    10     4     5   ar
    11     5     6   ar
    12     6    18    1
    13    18    19    1
    14    19    20    1
    15    20    21    1
    16    21    24    1
    17    24    25    1
    18    25    26    1
    19    26    27    1
    20    27    28    1
    21    28    29    1
    22    21    22    1
    23    22    23    1
    24     6     7   ar
    25     7     8   ar
    26     8     9   ar
    27    13    14   ar
    28    14    15   ar
    29    15    10   ar
    30     9     1   ar
    31     8     4   ar
    32    23    18    1
    33    29    24    1
@<TRIPOS>MOLECULE
*****
 29 33 0 0 0
SMALL
GASTEIGER

@<TRIPOS>ATOM
      1 C         139.0421  142.7426  156.4534 C.ar    1  UNL1        0.0213
      2 C         137.9521  142.0749  157.2382 C.ar    1  UNL1        0.1006
      3 N         137.9839  140.5907  157.4529 N.ar    1  UNL1       -0.2246
      4 C         139.1057  139.7743  156.8829 C.ar    1  UNL1        0.1702
      5 N         139.4024  138.3046  156.9304 N.ar    1  UNL1       -0.2052
      6 C         140.6757  138.0641  156.1750 C.ar    1  UNL1        0.1647
      7 S         141.1660  139.3851  155.6606 S.2     1  UNL1       -0.0499
      8 C         140.1958  140.4420  156.0981 C.ar    1  UNL1        0.0679
      9 C         140.1639  141.9262  155.8834 C.ar    1  UNL1        0.0112
     10 C         138.9467  147.1953  155.8089 C.ar    1  UNL1        0.2250
     11 C         139.8634  146.6062  156.8397 C.ar    1  UNL1        0.0577
     12 C         139.8952  145.1219  157.0545 C.ar    1  UNL1        0.0064
     13 C         139.0103  144.2269  156.2386 C.ar    1  UNL1        0.0209
     14 C         138.0935  144.8160  155.2078 C.ar    1  UNL1        0.1021
     15 N         138.0617  146.3002  154.9930 N.ar    1  UNL1       -0.2101
     16 C         138.4192  149.5844  156.6829 C.3     1  UNL1        0.2542
     17 O         138.9148  148.6795  155.5941 O.3     1  UNL1       -0.4561
     18 N         141.3418  136.7358  155.9698 N.pl3   1  UNL1       -0.2880
     19 C         142.5381  136.3616  156.7937 C.3     1  UNL1        0.0940
     20 C         143.2042  135.0334  156.5887 C.3     1  UNL1        0.0375
     21 C         142.6740  134.0794  155.5597 C.3     1  UNL1        0.0609
     22 C         141.4777  134.4536  154.7358 C.3     1  UNL1        0.0375
     23 C         140.8116  135.7819  154.9409 C.3     1  UNL1        0.0940
     24 N         143.3402  132.7511  155.3546 N.3     1  UNL1       -0.2738
     25 C         143.0721  131.9623  154.1072 C.3     1  UNL1        0.0720
     26 C         143.7381  130.6341  153.9021 C.3     1  UNL1        0.0174
     27 C         144.6723  130.0947  154.9443 C.3     1  UNL1        0.0029
     28 C         144.9403  130.8834  156.1917 C.3     1  UNL1        0.0174
     29 C         144.2743  132.2116  156.3968 C.3     1  UNL1        0.0720
@<TRIPOS>BOND
     1    16    17    1
     2    17    10    1
     3    10    11   ar
     4    11    12   ar
     5    12    13   ar
     6    13     1    1
     7     1     2   ar
     8     2     3   ar
     9     3     4   ar
    10     4     5   ar
    11     5     6   ar
    12     6    18    1
    13    18    19    1
    14    19    20    1
    15    20    21    1
    16    21    24    1
    17    24    25    1
    18    25    26    1
    19    26    27    1
    20    27    28    1
    21    28    29    1
    22    21    22    1
    23    22    23    1
    24     6     7   ar
    25     7     8   ar
    26     8     9   ar
    27    13    14   ar
    28    14    15   ar
    29    15    10   ar
    30     9     1   ar
    31     8     4   ar
    32    23    18    1
    33    29    24    1
@<TRIPOS>MOLECULE
*****
 29 33 0 0 0
SMALL
GASTEIGER

@<TRIPOS>ATOM
      1 C         141.0341  139.8797  164.6120 C.ar    1  UNL1        0.0213
      2 C         140.0067  139.2743  163.7022 C.ar    1  UNL1        0.1006
      3 N         140.2175  139.2901  162.2172 N.ar    1  UNL1       -0.2246
      4 C         141.4558  139.9113  161.6420 C.ar    1  UNL1        0.1702
      5 N         141.9340  140.0739  160.2295 N.ar    1  UNL1       -0.2052
      6 C         143.2569  140.7798  160.2664 C.ar    1  UNL1        0.1647
      7 S         143.5964  141.0534  161.7017 S.2     1  UNL1       -0.0499
      8 C         142.4833  140.5166  162.5518 C.ar    1  UNL1        0.0679
      9 C         142.2724  140.5008  164.0368 C.ar    1  UNL1        0.0112
     10 C         140.4018  139.8324  169.0671 C.ar    1  UNL1        0.2250
     11 C         139.2249  139.9420  168.1437 C.ar    1  UNL1        0.0577
     12 C         139.4357  139.9578  166.6586 C.ar    1  UNL1        0.0064
     13 C         140.8234  139.8639  166.0970 C.ar    1  UNL1        0.0209
     14 C         142.0003  139.7544  167.0205 C.ar    1  UNL1        0.1021
     15 N         141.7896  139.7386  168.5055 N.ar    1  UNL1       -0.2101
     16 C         140.8436  140.8571  171.4133 C.3     1  UNL1        0.2542
     17 O         140.1911  139.8167  170.5521 O.3     1  UNL1       -0.4561
     18 N         144.0936  141.1475  159.0769 N.pl3   1  UNL1       -0.2880
     19 C         144.0904  140.2727  157.8584 C.3     1  UNL1        0.0940
     20 C         144.9270  140.6404  156.6690 C.3     1  UNL1        0.0375
     21 C         145.7669  141.8829  156.6981 C.3     1  UNL1        0.0609
     22 C         145.7701  142.7577  157.9166 C.3     1  UNL1        0.0375
     23 C         144.9335  142.3900  159.1060 C.3     1  UNL1        0.0940
     24 N         146.6036  142.2506  155.5086 N.3     1  UNL1       -0.2738
     25 C         146.0279  143.1127  154.4244 C.3     1  UNL1        0.0720
     26 C         146.8645  143.4805  153.2350 C.3     1  UNL1        0.0174
     27 C         148.2768  142.9861  153.1297 C.3     1  UNL1        0.0029
     28 C         148.8524  142.1240  154.2139 C.3     1  UNL1        0.0174
     29 C         148.0158  141.7562  155.4033 C.3     1  UNL1        0.0720
@<TRIPOS>BOND
     1    16    17    1
     2    17    10    1
     3    10    11   ar
     4    11    12   ar
     5    12    13   ar
     6    13     1    1
     7     1     2   ar
     8     2     3   ar
     9     3     4   ar
    10     4     5   ar
    11     5     6   ar
    12     6    18    1
    13    18    19    1
    14    19    20    1
    15    20    21    1
    16    21    24    1
    17    24    25    1
    18    25    26    1
    19    26    27    1
    20    27    28    1
    21    28    29    1
    22    21    22    1
    23    22    23    1
    24     6     7   ar
    25     7     8   ar
    26     8     9   ar
    27    13    14   ar
    28    14    15   ar
    29    15    10   ar
    30     9     1   ar
    31     8     4   ar
    32    23    18    1
    33    29    24    1
