@<TRIPOS>MOLECULE
*****
 29 33 0 0 0
SMALL
GASTEIGER

@<TRIPOS>ATOM
      1 C         142.7899  138.7435  165.2225 C.ar    1  UNL1        0.1233
      2 C         141.9890  139.6533  166.1061 C.ar    1  UNL1        0.1180
      3 N         142.4648  139.4667  167.5163 N.ar    1  UNL1       -0.2233
      4 N         143.5598  138.4416  167.5043 N.ar    1  UNL1       -0.0634
      5 N         143.7607  137.9947  166.0866 N.ar    1  UNL1       -0.1287
      6 C         141.9381  140.1799  168.7263 C.3     1  UNL1        0.1825
      7 C         142.1832  139.6167  170.0948 C.2     1  UNL1        0.2449
      8 O         142.9550  138.3402  170.2533 O.2     1  UNL1       -0.2730
      9 N         141.6566  140.3299  171.3047 N.am    1  UNL1       -0.3044
     10 C         140.8848  141.6063  171.1462 C.3     1  UNL1        0.0717
     11 C         140.2011  142.7935  170.5354 C.3     1  UNL1        0.0196
     12 C         140.3636  142.7069  169.0468 C.3     1  UNL1        0.0042
     13 C         141.1478  141.4662  168.7375 C.3     1  UNL1        0.0332
     14 C         141.4700  140.7860  170.0350 C.3     1  UNL1        0.0220
     15 H         141.8174  139.9602  172.2029 H       1  UNL1        0.1494
     16 C         141.1772  138.0868  161.6562 C.ar    1  UNL1        0.1547
     17 C         141.3217  138.2236  163.1429 C.ar    1  UNL1        0.0400
     18 C         142.6453  138.6067  163.7358 C.ar    1  UNL1        0.0241
     19 C         143.8244  138.8529  162.8418 C.ar    1  UNL1        0.0033
     20 C         143.6799  138.7161  161.3550 C.ar    1  UNL1        0.0207
     21 C         142.3563  138.3331  160.7622 C.ar    1  UNL1        0.0994
     22 N         142.2117  138.1962  159.2755 N.ar    1  UNL1       -0.2839
     23 C         141.4870  139.1465  158.3690 C.ar    1  UNL1        0.1826
     24 N         141.5938  138.6227  156.9675 N.ar    1  UNL1       -0.2280
     25 C         142.3846  137.3487  157.0078 C.ar    1  UNL1        0.0786
     26 C         142.7324  136.4892  155.8287 C.3     1  UNL1        0.0538
     27 C         142.7664  137.0851  158.4343 C.ar    1  UNL1        0.0963
     28 C         138.5821  138.2075  161.6794 C.3     1  UNL1        0.2525
     29 O         139.8536  137.7038  161.0635 O.3     1  UNL1       -0.4700
@<TRIPOS>BOND
     1    28    29    1
     2    29    16    1
     3    16    17   ar
     4    17    18   ar
     5    18     1    1
     6     1     2   ar
     7     2     3   ar
     8     3     6    1
     9     6     7    1
    10     7     8    2
    11     7     9   am
    12     9    10    1
    13    10    11    1
    14    11    12    1
    15    12    13    1
    16    13    14    1
    17     3     4   ar
    18     4     5   ar
    19    18    19   ar
    20    19    20   ar
    21    20    21   ar
    22    21    22    1
    23    22    23   ar
    24    23    24   ar
    25    24    25   ar
    26    25    26    1
    27    25    27   ar
    28    21    16   ar
    29    27    22   ar
    30     5     1   ar
    31    13     6    1
    32    14    10    1
    33     9    15    1
@<TRIPOS>MOLECULE
*****
 29 33 0 0 0
SMALL
GASTEIGER

@<TRIPOS>ATOM
      1 C         143.1665  138.9821  160.4583 C.ar    1  UNL1        0.1233
      2 C         142.4786  137.8504  159.7542 C.ar    1  UNL1        0.1180
      3 N         142.8156  137.9388  158.2953 N.ar    1  UNL1       -0.2233
      4 N         143.7119  139.1252  158.0976 N.ar    1  UNL1       -0.0634
      5 N         143.9288  139.7700  159.4345 N.ar    1  UNL1       -0.1287
      6 C         142.3399  137.0047  157.2222 C.3     1  UNL1        0.1825
      7 C         140.9109  137.0493  156.7685 C.2     1  UNL1        0.2449
      8 O         139.9575  138.0280  157.3878 O.2     1  UNL1       -0.2730
      9 N         140.4352  136.1153  155.6955 N.am    1  UNL1       -0.3044
     10 C         141.3885  135.1368  155.0762 C.3     1  UNL1        0.0717
     11 C         142.6350  134.3648  154.7595 C.3     1  UNL1        0.0196
     12 C         143.7347  134.8783  155.6410 C.3     1  UNL1        0.0042
     13 C         143.1679  135.9676  156.5024 C.3     1  UNL1        0.0332
     14 C         141.7178  136.1274  156.1533 C.3     1  UNL1        0.0220
     15 H         139.4972  136.1446  155.3977 H       1  UNL1        0.1494
     16 C         141.7397  139.4353  164.1337 C.ar    1  UNL1        0.1547
     17 C         141.8028  139.1428  162.6639 C.ar    1  UNL1        0.0400
     18 C         143.1033  139.2746  161.9281 C.ar    1  UNL1        0.0241
     19 C         144.3406  139.6990  162.6622 C.ar    1  UNL1        0.0033
     20 C         144.2775  139.9915  164.1321 C.ar    1  UNL1        0.0207
     21 C         142.9770  139.8597  164.8678 C.ar    1  UNL1        0.0994
     22 N         142.9138  140.1522  166.3377 N.ar    1  UNL1       -0.2839
     23 C         142.9198  139.1350  167.4401 C.ar    1  UNL1        0.1826
     24 N         142.8432  139.8673  168.7469 N.ar    1  UNL1       -0.2280
     25 C         142.7898  141.3371  168.4522 C.ar    1  UNL1        0.0786
     26 C         142.7072  142.4376  169.4681 C.3     1  UNL1        0.0538
     27 C         142.8334  141.5131  166.9632 C.ar    1  UNL1        0.0963
     28 C         139.6426  138.0369  164.7634 C.3     1  UNL1        0.2525
     29 O         140.4391  139.3035  164.8694 O.3     1  UNL1       -0.4700
@<TRIPOS>BOND
     1    28    29    1
     2    29    16    1
     3    16    17   ar
     4    17    18   ar
     5    18     1    1
     6     1     2   ar
     7     2     3   ar
     8     3     6    1
     9     6     7    1
    10     7     8    2
    11     7     9   am
    12     9    10    1
    13    10    11    1
    14    11    12    1
    15    12    13    1
    16    13    14    1
    17     3     4   ar
    18     4     5   ar
    19    18    19   ar
    20    19    20   ar
    21    20    21   ar
    22    21    22    1
    23    22    23   ar
    24    23    24   ar
    25    24    25   ar
    26    25    26    1
    27    25    27   ar
    28    21    16   ar
    29    27    22   ar
    30     5     1   ar
    31    13     6    1
    32    14    10    1
    33     9    15    1
@<TRIPOS>MOLECULE
*****
 29 33 0 0 0
SMALL
GASTEIGER

@<TRIPOS>ATOM
      1 C         138.9391  139.6355  165.2615 C.ar    1  UNL1        0.1233
      2 C         139.8227  140.4928  166.1185 C.ar    1  UNL1        0.1180
      3 N         139.5231  140.1776  167.5540 N.ar    1  UNL1       -0.2233
      4 N         138.4543  139.1256  167.5843 N.ar    1  UNL1       -0.0634
      5 N         138.0934  138.7906  166.1675 N.ar    1  UNL1       -0.1287
      6 C         140.1773  140.8044  168.7496 C.3     1  UNL1        0.1825
      7 C         139.5610  140.6507  170.1085 C.2     1  UNL1        0.2449
      8 O         138.2905  139.8702  170.2718 O.2     1  UNL1       -0.2730
      9 N         140.2153  141.2774  171.3039 N.am    1  UNL1       -0.3044
     10 C         141.4857  142.0579  171.1405 C.3     1  UNL1        0.0717
     11 C         142.6873  142.7157  170.5294 C.3     1  UNL1        0.0196
     12 C         142.6654  142.4426  169.0546 C.3     1  UNL1        0.0042
     13 C         141.4503  141.6159  168.7543 C.3     1  UNL1        0.0332
     14 C         140.7212  141.3781  170.0434 C.3     1  UNL1        0.0220
     15 H         139.8108  141.1765  172.1958 H       1  UNL1        0.1494
     16 C         139.2591  140.8451  161.4953 C.ar    1  UNL1        0.1547
     17 C         139.2913  140.8556  162.9949 C.ar    1  UNL1        0.0400
     18 C         138.9070  139.6251  163.7619 C.ar    1  UNL1        0.0241
     19 C         138.4905  138.3843  163.0293 C.ar    1  UNL1        0.0033
     20 C         138.4583  138.3738  161.5296 C.ar    1  UNL1        0.0207
     21 C         138.8427  139.6042  160.7626 C.ar    1  UNL1        0.0994
     22 N         138.8105  139.5938  159.2630 N.ar    1  UNL1       -0.2839
     23 C         137.8818  140.3907  158.3956 C.ar    1  UNL1        0.1826
     24 N         138.1987  140.0741  156.9640 N.ar    1  UNL1       -0.2280
     25 C         139.3233  139.0816  156.9467 C.ar    1  UNL1        0.0786
     26 C         139.9582  138.4899  155.7234 C.3     1  UNL1        0.0538
     27 C         139.7014  138.7848  158.3676 C.ar    1  UNL1        0.0963
     28 C         139.4833  143.4296  161.3535 C.3     1  UNL1        0.2525
     29 O         139.6435  142.0756  160.7283 O.3     1  UNL1       -0.4700
@<TRIPOS>BOND
     1    28    29    1
     2    29    16    1
     3    16    17   ar
     4    17    18   ar
     5    18     1    1
     6     1     2   ar
     7     2     3   ar
     8     3     6    1
     9     6     7    1
    10     7     8    2
    11     7     9   am
    12     9    10    1
    13    10    11    1
    14    11    12    1
    15    12    13    1
    16    13    14    1
    17     3     4   ar
    18     4     5   ar
    19    18    19   ar
    20    19    20   ar
    21    20    21   ar
    22    21    22    1
    23    22    23   ar
    24    23    24   ar
    25    24    25   ar
    26    25    26    1
    27    25    27   ar
    28    21    16   ar
    29    27    22   ar
    30     5     1   ar
    31    13     6    1
    32    14    10    1
    33     9    15    1
@<TRIPOS>MOLECULE
*****
 29 33 0 0 0
SMALL
GASTEIGER

@<TRIPOS>ATOM
      1 C         143.0434  138.2155  157.1177 C.ar    1  UNL1        0.1233
      2 C         142.6468  136.8181  157.4918 C.ar    1  UNL1        0.1180
      3 N         143.4359  135.8686  156.6399 N.ar    1  UNL1       -0.2233
      4 N         144.3202  136.6792  155.7393 N.ar    1  UNL1       -0.0634
      5 N         144.0776  138.1297  156.0347 N.ar    1  UNL1       -0.1287
      6 C         143.3550  134.3713  156.6812 C.3     1  UNL1        0.1825
      7 C         142.2305  133.6615  155.9871 C.2     1  UNL1        0.2449
      8 O         141.1870  134.4491  155.2516 O.2     1  UNL1       -0.2730
      9 N         142.1496  132.1643  156.0284 N.am    1  UNL1       -0.3044
     10 C         143.1931  131.3769  156.7639 C.3     1  UNL1        0.0717
     11 C         144.4006  131.0216  157.5798 C.3     1  UNL1        0.0196
     12 C         145.0965  132.2959  157.9567 C.3     1  UNL1        0.0042
     13 C         144.3192  133.4386  157.3737 C.3     1  UNL1        0.0332
     14 C         143.1428  132.8706  156.6365 C.3     1  UNL1        0.0220
     15 H         141.4116  131.6985  155.5728 H       1  UNL1        0.1494
     16 C         142.8979  141.7798  158.8569 C.ar    1  UNL1        0.1547
     17 C         143.4404  140.5181  158.2538 C.ar    1  UNL1        0.0400
     18 C         142.5009  139.4772  157.7209 C.ar    1  UNL1        0.0241
     19 C         141.0189  139.6981  157.7911 C.ar    1  UNL1        0.0033
     20 C         140.4764  140.9598  158.3943 C.ar    1  UNL1        0.0207
     21 C         141.4159  142.0007  158.9271 C.ar    1  UNL1        0.0994
     22 N         140.8734  143.2624  159.5303 N.ar    1  UNL1       -0.2839
     23 C         140.4833  144.5014  158.7802 C.ar    1  UNL1        0.1826
     24 N         139.9946  145.5115  159.7757 N.ar    1  UNL1       -0.2280
     25 C         140.0827  144.8967  161.1411 C.ar    1  UNL1        0.0786
     26 C         139.6956  145.5561  162.4315 C.3     1  UNL1        0.0538
     27 C         140.6259  143.5067  160.9894 C.ar    1  UNL1        0.0963
     28 C         144.4568  142.6486  160.7450 C.3     1  UNL1        0.2525
     29 O         143.8374  142.8207  159.3898 O.3     1  UNL1       -0.4700
@<TRIPOS>BOND
     1    28    29    1
     2    29    16    1
     3    16    17   ar
     4    17    18   ar
     5    18     1    1
     6     1     2   ar
     7     2     3   ar
     8     3     6    1
     9     6     7    1
    10     7     8    2
    11     7     9   am
    12     9    10    1
    13    10    11    1
    14    11    12    1
    15    12    13    1
    16    13    14    1
    17     3     4   ar
    18     4     5   ar
    19    18    19   ar
    20    19    20   ar
    21    20    21   ar
    22    21    22    1
    23    22    23   ar
    24    23    24   ar
    25    24    25   ar
    26    25    26    1
    27    25    27   ar
    28    21    16   ar
    29    27    22   ar
    30     5     1   ar
    31    13     6    1
    32    14    10    1
    33     9    15    1
@<TRIPOS>MOLECULE
*****
 29 33 0 0 0
SMALL
GASTEIGER

@<TRIPOS>ATOM
      1 C         141.5817  142.9216  163.6463 C.ar    1  UNL1        0.1233
      2 C         140.6093  142.7300  164.7723 C.ar    1  UNL1        0.1180
      3 N         141.3829  142.3062  165.9855 N.ar    1  UNL1       -0.2233
      4 N         142.8332  142.2358  165.6094 N.ar    1  UNL1       -0.0634
      5 N         142.9561  142.6162  164.1636 N.ar    1  UNL1       -0.1287
      6 C         140.8071  142.0054  167.3376 C.3     1  UNL1        0.1825
      7 C         140.2973  140.6289  167.6464 C.2     1  UNL1        0.2449
      8 O         140.3633  139.5531  166.6031 O.2     1  UNL1       -0.2730
      9 N         139.7216  140.3282  168.9985 N.am    1  UNL1       -0.3044
     10 C         139.6557  141.4039  170.0417 C.3     1  UNL1        0.0717
     11 C         139.7866  142.7263  170.7377 C.3     1  UNL1        0.0196
     12 C         140.4133  143.6946  169.7788 C.3     1  UNL1        0.0042
     13 C         140.6697  142.9708  168.4902 C.3     1  UNL1        0.0332
     14 C         140.2014  141.5550  168.6527 C.3     1  UNL1        0.0220
     15 H         139.3870  139.4247  169.2012 H       1  UNL1        0.1494
     16 C         141.9830  143.9239  159.8273 C.ar    1  UNL1        0.1547
     17 C         142.3252  143.5011  161.2252 C.ar    1  UNL1        0.0400
     18 C         141.2395  143.3444  162.2484 C.ar    1  UNL1        0.0241
     19 C         139.8117  143.6105  161.8735 C.ar    1  UNL1        0.0033
     20 C         139.4695  144.0333  160.4756 C.ar    1  UNL1        0.0207
     21 C         140.5552  144.1900  159.4525 C.ar    1  UNL1        0.0994
     22 N         140.2131  144.6128  158.0546 N.ar    1  UNL1       -0.2839
     23 C         139.7351  143.7133  156.9535 C.ar    1  UNL1        0.1826
     24 N         139.5155  144.5539  155.7306 N.ar    1  UNL1       -0.2280
     25 C         139.8578  145.9729  156.0760 C.ar    1  UNL1        0.0786
     26 C         139.7822  147.1489  155.1481 C.3     1  UNL1        0.0538
     27 C         140.2889  146.0093  157.5123 C.ar    1  UNL1        0.0963
     28 C         143.9369  142.9108  158.4467 C.3     1  UNL1        0.2525
     29 O         143.0687  144.0806  158.8042 O.3     1  UNL1       -0.4700
@<TRIPOS>BOND
     1    28    29    1
     2    29    16    1
     3    16    17   ar
     4    17    18   ar
     5    18     1    1
     6     1     2   ar
     7     2     3   ar
     8     3     6    1
     9     6     7    1
    10     7     8    2
    11     7     9   am
    12     9    10    1
    13    10    11    1
    14    11    12    1
    15    12    13    1
    16    13    14    1
    17     3     4   ar
    18     4     5   ar
    19    18    19   ar
    20    19    20   ar
    21    20    21   ar
    22    21    22    1
    23    22    23   ar
    24    23    24   ar
    25    24    25   ar
    26    25    26    1
    27    25    27   ar
    28    21    16   ar
    29    27    22   ar
    30     5     1   ar
    31    13     6    1
    32    14    10    1
    33     9    15    1
@<TRIPOS>MOLECULE
*****
 29 33 0 0 0
SMALL
GASTEIGER

@<TRIPOS>ATOM
      1 C         144.4527  141.3931  158.3245 C.ar    1  UNL1        0.1233
      2 C         145.4226  142.2931  157.6179 C.ar    1  UNL1        0.1180
      3 N         145.9801  141.5434  156.4444 N.ar    1  UNL1       -0.2233
      4 N         145.3547  140.1802  156.4256 N.ar    1  UNL1       -0.0634
      5 N         144.4107  140.0873  157.5876 N.ar    1  UNL1       -0.1287
      6 C         146.9864  142.0654  155.4620 C.3     1  UNL1        0.1825
      7 C         146.5590  143.0184  154.3854 C.2     1  UNL1        0.2449
      8 O         145.1253  143.4495  154.2912 O.2     1  UNL1       -0.2730
      9 N         147.5652  143.5404  153.4030 N.am    1  UNL1       -0.3044
     10 C         148.9988  143.1093  153.4972 C.3     1  UNL1        0.0717
     11 C         150.2590  142.4361  153.9541 C.3     1  UNL1        0.0196
     12 C         149.9248  141.5846  155.1429 C.3     1  UNL1        0.0042
     13 C         148.4581  141.7314  155.4206 C.3     1  UNL1        0.0332
     14 C         147.8858  142.6737  154.4036 C.3     1  UNL1        0.0220
     15 H         147.2847  144.1659  152.6964 H       1  UNL1        0.1494
     16 C         143.5680  142.6486  161.9839 C.ar    1  UNL1        0.1547
     17 C         144.3575  142.3033  160.7561 C.ar    1  UNL1        0.0400
     18 C         143.6633  141.7384  159.5523 C.ar    1  UNL1        0.0241
     19 C         142.1796  141.5189  159.5764 C.ar    1  UNL1        0.0033
     20 C         141.3901  141.8642  160.8043 C.ar    1  UNL1        0.0207
     21 C         142.0844  142.4290  162.0080 C.ar    1  UNL1        0.0994
     22 N         141.2950  142.7744  163.2359 N.ar    1  UNL1       -0.2839
     23 C         141.3111  142.0236  164.5343 C.ar    1  UNL1        0.1826
     24 N         140.3770  142.7163  165.4819 N.ar    1  UNL1       -0.2280
     25 C         139.7837  143.8951  164.7689 C.ar    1  UNL1        0.0786
     26 C         138.7963  144.8674  165.3432 C.3     1  UNL1        0.0538
     27 C         140.3510  143.9310  163.3808 C.ar    1  UNL1        0.0963
     28 C         145.0979  142.3225  164.0583 C.3     1  UNL1        0.2525
     29 O         144.2623  143.2134  163.1876 O.3     1  UNL1       -0.4700
@<TRIPOS>BOND
     1    28    29    1
     2    29    16    1
     3    16    17   ar
     4    17    18   ar
     5    18     1    1
     6     1     2   ar
     7     2     3   ar
     8     3     6    1
     9     6     7    1
    10     7     8    2
    11     7     9   am
    12     9    10    1
    13    10    11    1
    14    11    12    1
    15    12    13    1
    16    13    14    1
    17     3     4   ar
    18     4     5   ar
    19    18    19   ar
    20    19    20   ar
    21    20    21   ar
    22    21    22    1
    23    22    23   ar
    24    23    24   ar
    25    24    25   ar
    26    25    26    1
    27    25    27   ar
    28    21    16   ar
    29    27    22   ar
    30     5     1   ar
    31    13     6    1
    32    14    10    1
    33     9    15    1
@<TRIPOS>MOLECULE
*****
 29 33 0 0 0
SMALL
GASTEIGER

@<TRIPOS>ATOM
      1 C         140.9961  142.1249  163.6916 C.ar    1  UNL1        0.1233
      2 C         141.3028  141.5158  165.0276 C.ar    1  UNL1        0.1180
      3 N         140.2757  142.0032  166.0060 N.ar    1  UNL1       -0.2233
      4 N         139.3341  142.9136  165.2748 N.ar    1  UNL1       -0.0634
      5 N         139.7794  142.9888  163.8443 N.ar    1  UNL1       -0.1287
      6 C         140.2028  141.6435  167.4605 C.3     1  UNL1        0.1825
      7 C         139.6636  140.3070  167.8764 C.2     1  UNL1        0.2449
      8 O         139.1973  139.3302  166.8378 O.2     1  UNL1       -0.2730
      9 N         139.5908  139.9472  169.3308 N.am    1  UNL1       -0.3044
     10 C         140.0571  140.9240  170.3692 C.3     1  UNL1        0.0717
     11 C         140.6098  142.1556  171.0232 C.3     1  UNL1        0.0196
     12 C         140.9631  143.1349  169.9434 C.3     1  UNL1        0.0042
     13 C         140.6288  142.5086  168.6220 C.3     1  UNL1        0.0332
     14 C         140.0689  141.1421  168.8852 C.3     1  UNL1        0.0220
     15 H         139.2369  139.0700  169.6038 H       1  UNL1        0.1494
     16 C         143.4500  140.5030  161.0274 C.ar    1  UNL1        0.1547
     17 C         142.6760  140.7197  162.2938 C.ar    1  UNL1        0.0400
     18 C         141.7701  141.9081  162.4252 C.ar    1  UNL1        0.0241
     19 C         141.6384  142.8797  161.2900 C.ar    1  UNL1        0.0033
     20 C         142.4125  142.6631  160.0235 C.ar    1  UNL1        0.0207
     21 C         143.3183  141.4747  159.8923 C.ar    1  UNL1        0.0994
     22 N         144.0924  141.2579  158.6259 N.ar    1  UNL1       -0.2839
     23 C         143.9357  140.1011  157.6839 C.ar    1  UNL1        0.1826
     24 N         144.9056  140.2881  156.5549 N.ar    1  UNL1       -0.2280
     25 C         145.6615  141.5604  156.7992 C.ar    1  UNL1        0.0786
     26 C         146.7321  142.1329  155.9182 C.3     1  UNL1        0.0538
     27 C         145.1589  142.1598  158.0791 C.ar    1  UNL1        0.0963
     28 C         143.8322  137.9377  161.1785 C.3     1  UNL1        0.2525
     29 O         144.3558  139.3146  160.8962 O.3     1  UNL1       -0.4700
@<TRIPOS>BOND
     1    28    29    1
     2    29    16    1
     3    16    17   ar
     4    17    18   ar
     5    18     1    1
     6     1     2   ar
     7     2     3   ar
     8     3     6    1
     9     6     7    1
    10     7     8    2
    11     7     9   am
    12     9    10    1
    13    10    11    1
    14    11    12    1
    15    12    13    1
    16    13    14    1
    17     3     4   ar
    18     4     5   ar
    19    18    19   ar
    20    19    20   ar
    21    20    21   ar
    22    21    22    1
    23    22    23   ar
    24    23    24   ar
    25    24    25   ar
    26    25    26    1
    27    25    27   ar
    28    21    16   ar
    29    27    22   ar
    30     5     1   ar
    31    13     6    1
    32    14    10    1
    33     9    15    1
@<TRIPOS>MOLECULE
*****
 29 33 0 0 0
SMALL
GASTEIGER

@<TRIPOS>ATOM
      1 C         139.8020  139.8295  163.3619 C.ar    1  UNL1        0.1233
      2 C         140.4494  139.9232  164.7117 C.ar    1  UNL1        0.1180
      3 N         139.4072  140.3643  165.6961 N.ar    1  UNL1       -0.2233
      4 N         138.1156  140.5433  164.9547 N.ar    1  UNL1       -0.0634
      5 N         138.3596  140.2127  163.5120 N.ar    1  UNL1       -0.1287
      6 C         139.6192  140.5874  167.1642 C.3     1  UNL1        0.1825
      7 C         138.9127  139.7208  168.1642 C.2     1  UNL1        0.2449
      8 O         137.9941  138.6312  167.6960 O.2     1  UNL1       -0.2730
      9 N         139.1248  139.9439  169.6323 N.am    1  UNL1       -0.3044
     10 C         140.0433  141.0334  170.1004 C.3     1  UNL1        0.0717
     11 C         141.0051  142.1844  170.1053 C.3     1  UNL1        0.0196
     12 C         141.2906  142.5560  168.6803 C.3     1  UNL1        0.0042
     13 C         140.5052  141.6346  167.7948 C.3     1  UNL1        0.0332
     14 C         139.7343  140.6935  168.6724 C.3     1  UNL1        0.0220
     15 H         138.6611  139.3751  170.2886 H       1  UNL1        0.1494
     16 C         140.3591  138.9017  159.5436 C.ar    1  UNL1        0.1547
     17 C         139.6828  139.3074  160.8195 C.ar    1  UNL1        0.0400
     18 C         140.4783  139.4238  162.0859 C.ar    1  UNL1        0.0241
     19 C         141.9500  139.1345  162.0763 C.ar    1  UNL1        0.0033
     20 C         142.6264  138.7287  160.8004 C.ar    1  UNL1        0.0207
     21 C         141.8309  138.6124  159.5340 C.ar    1  UNL1        0.0994
     22 N         142.5072  138.2067  158.2581 N.ar    1  UNL1       -0.2839
     23 C         143.1242  139.1343  157.2537 C.ar    1  UNL1        0.1826
     24 N         143.6836  138.3031  156.1373 N.ar    1  UNL1       -0.2280
     25 C         143.4122  136.8618  156.4518 C.ar    1  UNL1        0.0786
     26 C         143.7999  135.6864  155.6044 C.3     1  UNL1        0.0538
     27 C         142.6852  136.8022  157.7625 C.ar    1  UNL1        0.0963
     28 C         138.9288  140.0040  157.6757 C.3     1  UNL1        0.2525
     29 O         139.5636  138.7854  158.2773 O.3     1  UNL1       -0.4700
@<TRIPOS>BOND
     1    28    29    1
     2    29    16    1
     3    16    17   ar
     4    17    18   ar
     5    18     1    1
     6     1     2   ar
     7     2     3   ar
     8     3     6    1
     9     6     7    1
    10     7     8    2
    11     7     9   am
    12     9    10    1
    13    10    11    1
    14    11    12    1
    15    12    13    1
    16    13    14    1
    17     3     4   ar
    18     4     5   ar
    19    18    19   ar
    20    19    20   ar
    21    20    21   ar
    22    21    22    1
    23    22    23   ar
    24    23    24   ar
    25    24    25   ar
    26    25    26    1
    27    25    27   ar
    28    21    16   ar
    29    27    22   ar
    30     5     1   ar
    31    13     6    1
    32    14    10    1
    33     9    15    1
@<TRIPOS>MOLECULE
*****
 29 33 0 0 0
SMALL
GASTEIGER

@<TRIPOS>ATOM
      1 C         141.1714  140.8783  163.7141 C.ar    1  UNL1        0.1233
      2 C         140.9265  141.3530  165.1157 C.ar    1  UNL1        0.1180
      3 N         141.1535  140.1962  166.0432 N.ar    1  UNL1       -0.2233
      4 N         141.5388  139.0066  165.2148 N.ar    1  UNL1       -0.0634
      5 N         141.5498  139.4281  163.7753 N.ar    1  UNL1       -0.1287
      6 C         141.0190  140.2241  167.5370 C.3     1  UNL1        0.1825
      7 C         139.7220  139.8320  168.1806 C.2     1  UNL1        0.2449
      8 O         138.5597  139.4120  167.3305 O.2     1  UNL1       -0.2730
      9 N         139.5875  139.8598  169.6743 N.am    1  UNL1       -0.3044
     10 C         140.7498  140.2798  170.5243 C.3     1  UNL1        0.0717
     11 C         142.1106  140.7442  170.9515 C.3     1  UNL1        0.0196
     12 C         142.9371  140.9545  169.7175 C.3     1  UNL1        0.0042
     13 C         142.0870  140.6201  168.5277 C.3     1  UNL1        0.0332
     14 C         140.7352  140.2031  169.0263 C.3     1  UNL1        0.0220
     15 H         138.7363  139.6025  170.0967 H       1  UNL1        0.1494
     16 C         140.0644  143.7527  161.2116 C.ar    1  UNL1        0.1547
     17 C         140.1779  142.9229  162.4559 C.ar    1  UNL1        0.0400
     18 C         141.0578  141.7081  162.4697 C.ar    1  UNL1        0.0241
     19 C         141.8241  141.3232  161.2391 C.ar    1  UNL1        0.0033
     20 C         141.7106  142.1531  159.9946 C.ar    1  UNL1        0.0207
     21 C         140.8307  143.3678  159.9809 C.ar    1  UNL1        0.0994
     22 N         140.7171  144.1976  158.7365 N.ar    1  UNL1       -0.2839
     23 C         141.5710  145.3794  158.3839 C.ar    1  UNL1        0.1826
     24 N         141.1114  145.9036  157.0557 N.ar    1  UNL1       -0.2280
     25 C         139.9734  145.0458  156.5876 C.ar    1  UNL1        0.0786
     26 C         139.2127  145.2130  155.3056 C.3     1  UNL1        0.0538
     27 C         139.7297  143.9914  157.6263 C.ar    1  UNL1        0.0963
     28 C         139.7163  146.2843  161.6804 C.3     1  UNL1        0.2525
     29 O         139.1844  144.9674  161.1979 O.3     1  UNL1       -0.4700
@<TRIPOS>BOND
     1    28    29    1
     2    29    16    1
     3    16    17   ar
     4    17    18   ar
     5    18     1    1
     6     1     2   ar
     7     2     3   ar
     8     3     6    1
     9     6     7    1
    10     7     8    2
    11     7     9   am
    12     9    10    1
    13    10    11    1
    14    11    12    1
    15    12    13    1
    16    13    14    1
    17     3     4   ar
    18     4     5   ar
    19    18    19   ar
    20    19    20   ar
    21    20    21   ar
    22    21    22    1
    23    22    23   ar
    24    23    24   ar
    25    24    25   ar
    26    25    26    1
    27    25    27   ar
    28    21    16   ar
    29    27    22   ar
    30     5     1   ar
    31    13     6    1
    32    14    10    1
    33     9    15    1
