@<TRIPOS>MOLECULE
*****
 31 34 0 0 0
SMALL
GASTEIGER

@<TRIPOS>ATOM
      1 N         142.2659  143.4487  162.5513 N.3     1  UNL1       -0.2725
      2 C         142.8651  143.9318  163.8387 C.3     1  UNL1        0.0725
      3 C         142.9936  142.9960  165.0039 C.3     1  UNL1        0.0234
      4 C         142.5229  141.5770  164.8817 C.3     1  UNL1        0.0464
      5 C         141.9237  141.0939  163.5943 C.3     1  UNL1        0.0234
      6 C         141.7952  142.0297  162.4291 C.3     1  UNL1        0.0725
      7 C         142.6513  140.6412  166.0470 C.ar    1  UNL1        0.1003
      8 N         143.4232  139.3551  166.0640 N.ar    1  UNL1       -0.0814
      9 O         143.2794  138.7463  167.4273 O.2     1  UNL1       -0.3536
     10 C         142.4187  139.6561  168.2529 C.ar    1  UNL1        0.1787
     11 C         141.9383  139.5695  169.6712 C.ar    1  UNL1        0.0698
     12 C         141.0697  140.6539  170.2364 C.ar    1  UNL1        0.1433
     13 F         140.5893  140.5673  171.6548 F       1  UNL1       -0.2041
     14 C         140.6816  141.8250  169.3832 C.ar    1  UNL1        0.0299
     15 C         141.1620  141.9117  167.9649 C.ar    1  UNL1        0.0067
     16 C         142.0305  140.8272  167.3998 C.ar    1  UNL1        0.0540
     17 C         142.1374  144.3845  161.3860 C.3     1  UNL1        0.0759
     18 C         140.7874  144.8986  160.9823 C.3     1  UNL1        0.0646
     19 C         139.9797  145.7201  161.9430 C.3     1  UNL1        0.2068
     20 O         138.6176  145.2556  162.3660 O.3     1  UNL1       -0.4754
     21 C         138.1510  141.3514  164.5543 C.ar    1  UNL1        0.0505
     22 C         137.5118  141.5389  163.2104 C.ar    1  UNL1        0.0178
     23 C         137.6673  142.8403  162.4810 C.ar    1  UNL1        0.0382
     24 C         138.4621  143.9542  163.0955 C.ar    1  UNL1        0.1386
     25 C         139.1014  143.7667  164.4394 C.ar    1  UNL1        0.0382
     26 C         138.9458  142.4652  165.1688 C.ar    1  UNL1        0.0178
     27 C         138.5346  137.5184  165.5089 C.3     1  UNL1        0.0949
     28 C         138.6901  138.8198  164.7795 C.2     1  UNL1        0.2266
     29 O         139.5401  138.8911  163.5455 O.2     1  UNL1       -0.2748
     30 N         137.9956  140.0499  165.2839 N.am    1  UNL1       -0.2839
     31 H         137.4377  140.0032  166.0937 H       1  UNL1        0.1549
@<TRIPOS>BOND
     1    27    28    1
     2    28    29    2
     3    28    30   am
     4    30    21    1
     5    21    22   ar
     6    22    23   ar
     7    23    24   ar
     8    24    20    1
     9    20    19    1
    10    19    18    1
    11    18    17    1
    12    17     1    1
    13     1     2    1
    14     2     3    1
    15     3     4    1
    16     4     7    1
    17     7     8   ar
    18     8     9   ar
    19     9    10   ar
    20    10    11   ar
    21    11    12   ar
    22    12    13    1
    23    12    14   ar
    24    14    15   ar
    25    15    16   ar
    26     4     5    1
    27     5     6    1
    28    24    25   ar
    29    25    26   ar
    30    26    21   ar
    31     6     1    1
    32    16     7   ar
    33    16    10   ar
    34    30    31    1
@<TRIPOS>MOLECULE
*****
 31 34 0 0 0
SMALL
GASTEIGER

@<TRIPOS>ATOM
      1 N         142.2834  140.7878  168.9248 N.3     1  UNL1       -0.2725
      2 C         142.5105  139.4572  168.2707 C.3     1  UNL1        0.0725
      3 C         143.0762  139.3905  166.8830 C.3     1  UNL1        0.0234
      4 C         143.4148  140.6544  166.1495 C.3     1  UNL1        0.0464
      5 C         143.1877  141.9849  166.8038 C.3     1  UNL1        0.0234
      6 C         142.6220  142.0516  168.1914 C.3     1  UNL1        0.0725
      7 C         143.9805  140.5877  164.7619 C.ar    1  UNL1        0.1003
      8 N         145.1093  141.4195  164.2290 N.ar    1  UNL1       -0.0814
      9 O         145.3431  141.0234  162.8013 O.2     1  UNL1       -0.3536
     10 C         144.3589  139.9467  162.4518 C.ar    1  UNL1        0.1787
     11 C         144.1207  139.1767  161.1868 C.ar    1  UNL1        0.0698
     12 C         143.0404  138.1375  161.1335 C.ar    1  UNL1        0.1433
     13 F         142.8022  137.3675  159.8684 F       1  UNL1       -0.2041
     14 C         142.1983  137.8683  162.3452 C.ar    1  UNL1        0.0299
     15 C         142.4364  138.6382  163.6103 C.ar    1  UNL1        0.0067
     16 C         143.5168  139.6775  163.6636 C.ar    1  UNL1        0.0540
     17 C         141.7177  140.8545  170.3125 C.3     1  UNL1        0.0759
     18 C         140.3458  140.3149  170.5899 C.3     1  UNL1        0.0646
     19 C         139.2362  140.5461  169.6073 C.3     1  UNL1        0.2068
     20 O         138.8377  139.4567  168.6563 O.3     1  UNL1       -0.4754
     21 C         139.1585  140.1170  164.2166 C.ar    1  UNL1        0.0505
     22 C         138.5331  138.8601  164.7446 C.ar    1  UNL1        0.0178
     23 C         138.4262  138.6399  166.2245 C.ar    1  UNL1        0.0382
     24 C         138.9447  139.6768  167.1764 C.ar    1  UNL1        0.1386
     25 C         139.5701  140.9338  166.6484 C.ar    1  UNL1        0.0382
     26 C         139.6770  141.1539  165.1685 C.ar    1  UNL1        0.0178
     27 C         138.2975  141.3111  160.5311 C.3     1  UNL1        0.0949
     28 C         138.1906  141.0908  162.0110 C.2     1  UNL1        0.2266
     29 O         137.0087  141.6242  162.7652 O.2     1  UNL1       -0.2748
     30 N         139.2655  140.3372  162.7367 N.am    1  UNL1       -0.2839
     31 H         140.0412  139.9872  162.2417 H       1  UNL1        0.1549
@<TRIPOS>BOND
     1    27    28    1
     2    28    29    2
     3    28    30   am
     4    30    21    1
     5    21    22   ar
     6    22    23   ar
     7    23    24   ar
     8    24    20    1
     9    20    19    1
    10    19    18    1
    11    18    17    1
    12    17     1    1
    13     1     2    1
    14     2     3    1
    15     3     4    1
    16     4     7    1
    17     7     8   ar
    18     8     9   ar
    19     9    10   ar
    20    10    11   ar
    21    11    12   ar
    22    12    13    1
    23    12    14   ar
    24    14    15   ar
    25    15    16   ar
    26     4     5    1
    27     5     6    1
    28    24    25   ar
    29    25    26   ar
    30    26    21   ar
    31     6     1    1
    32    16     7   ar
    33    16    10   ar
    34    30    31    1
@<TRIPOS>MOLECULE
*****
 31 34 0 0 0
SMALL
GASTEIGER

@<TRIPOS>ATOM
      1 N         142.9949  138.0897  162.4802 N.3     1  UNL1       -0.2725
      2 C         141.8781  137.5774  163.3405 C.3     1  UNL1        0.0725
      3 C         141.7844  137.9983  164.7772 C.3     1  UNL1        0.0234
      4 C         142.8076  138.9316  165.3536 C.3     1  UNL1        0.0464
      5 C         143.9244  139.4439  164.4932 C.3     1  UNL1        0.0234
      6 C         144.0181  139.0230  163.0565 C.3     1  UNL1        0.0725
      7 C         142.7139  139.3526  166.7902 C.ar    1  UNL1        0.1003
      8 N         143.3249  138.6390  167.9597 N.ar    1  UNL1       -0.0814
      9 O         142.9813  139.4065  169.2019 O.2     1  UNL1       -0.3536
     10 C         142.1581  140.5943  168.8001 C.ar    1  UNL1        0.1787
     11 C         141.5376  141.7019  169.5990 C.ar    1  UNL1        0.0698
     12 C         140.7519  142.7762  168.9073 C.ar    1  UNL1        0.1433
     13 F         140.1313  143.8839  169.7062 F       1  UNL1       -0.2041
     14 C         140.5866  142.7429  167.4168 C.ar    1  UNL1        0.0299
     15 C         141.2071  141.6353  166.6180 C.ar    1  UNL1        0.0067
     16 C         141.9928  140.5610  167.3096 C.ar    1  UNL1        0.0540
     17 C         143.0886  137.6688  161.0435 C.3     1  UNL1        0.0759
     18 C         142.8845  138.6769  159.9517 C.3     1  UNL1        0.0646
     19 C         141.5703  138.7473  159.2321 C.3     1  UNL1        0.2068
     20 O         140.5706  139.8041  159.5979 O.3     1  UNL1       -0.4754
     21 C         138.7335  139.8379  163.7056 C.ar    1  UNL1        0.0505
     22 C         139.8865  140.7447  163.3923 C.ar    1  UNL1        0.0178
     23 C         140.4988  140.7335  162.0230 C.ar    1  UNL1        0.0382
     24 C         139.9582  139.8153  160.9672 C.ar    1  UNL1        0.1386
     25 C         138.8053  138.9085  161.2805 C.ar    1  UNL1        0.0382
     26 C         138.1929  138.9197  162.6498 C.ar    1  UNL1        0.0178
     27 C         137.5235  138.6164  167.2825 C.3     1  UNL1        0.0949
     28 C         138.1359  138.6053  165.9133 C.2     1  UNL1        0.2266
     29 O         138.7631  137.3503  165.3824 O.2     1  UNL1       -0.2748
     30 N         138.1211  139.8491  165.0749 N.am    1  UNL1       -0.2839
     31 H         137.7095  140.6727  165.4233 H       1  UNL1        0.1549
@<TRIPOS>BOND
     1    27    28    1
     2    28    29    2
     3    28    30   am
     4    30    21    1
     5    21    22   ar
     6    22    23   ar
     7    23    24   ar
     8    24    20    1
     9    20    19    1
    10    19    18    1
    11    18    17    1
    12    17     1    1
    13     1     2    1
    14     2     3    1
    15     3     4    1
    16     4     7    1
    17     7     8   ar
    18     8     9   ar
    19     9    10   ar
    20    10    11   ar
    21    11    12   ar
    22    12    13    1
    23    12    14   ar
    24    14    15   ar
    25    15    16   ar
    26     4     5    1
    27     5     6    1
    28    24    25   ar
    29    25    26   ar
    30    26    21   ar
    31     6     1    1
    32    16     7   ar
    33    16    10   ar
    34    30    31    1
@<TRIPOS>MOLECULE
*****
 31 34 0 0 0
SMALL
GASTEIGER

@<TRIPOS>ATOM
      1 N         138.2408  138.7344  162.8669 N.3     1  UNL1       -0.2725
      2 C         138.0585  140.1100  163.4365 C.3     1  UNL1        0.0725
      3 C         138.3802  140.3737  164.8777 C.3     1  UNL1        0.0234
      4 C         138.8843  139.2618  165.7493 C.3     1  UNL1        0.0464
      5 C         139.0665  137.8862  165.1797 C.3     1  UNL1        0.0234
      6 C         138.7448  137.6225  163.7385 C.3     1  UNL1        0.0725
      7 C         139.2060  139.5255  167.1905 C.ar    1  UNL1        0.1003
      8 N         138.2926  139.2857  168.3559 N.ar    1  UNL1       -0.0814
      9 O         139.0198  139.6873  169.6049 O.2     1  UNL1       -0.3536
     10 C         140.3825  140.1753  169.2114 C.ar    1  UNL1        0.1787
     11 C         141.5334  140.6978  170.0190 C.ar    1  UNL1        0.0698
     12 C         142.7994  141.1203  169.3345 C.ar    1  UNL1        0.1433
     13 F         143.9504  141.6428  170.1421 F       1  UNL1       -0.2041
     14 C         142.9145  141.0202  167.8422 C.ar    1  UNL1        0.0299
     15 C         141.7636  140.4977  167.0346 C.ar    1  UNL1        0.0067
     16 C         140.4976  140.0753  167.7192 C.ar    1  UNL1        0.0540
     17 C         137.9190  138.4707  161.4258 C.3     1  UNL1        0.0759
     18 C         138.8017  139.0243  160.3468 C.3     1  UNL1        0.0646
     19 C         140.1184  138.3715  160.0464 C.3     1  UNL1        0.2068
     20 O         140.9621  137.8353  161.1648 O.3     1  UNL1       -0.4754
     21 C         143.5859  140.6171  163.5369 C.ar    1  UNL1        0.0505
     22 C         143.2772  139.2467  164.0628 C.ar    1  UNL1        0.0178
     23 C         142.4026  138.3194  163.2721 C.ar    1  UNL1        0.0382
     24 C         141.8367  138.7626  161.9555 C.ar    1  UNL1        0.1386
     25 C         142.1453  140.1330  161.4296 C.ar    1  UNL1        0.0382
     26 C         143.0199  141.0603  162.2203 C.ar    1  UNL1        0.0178
     27 C         144.7636  143.7344  165.6922 C.3     1  UNL1        0.0949
     28 C         143.8891  142.8070  164.9016 C.2     1  UNL1        0.2266
     29 O         142.4431  143.1422  164.6850 O.2     1  UNL1       -0.2748
     30 N         144.4605  141.5445  164.3275 N.am    1  UNL1       -0.2839
     31 H         145.4095  141.3245  164.4697 H       1  UNL1        0.1549
@<TRIPOS>BOND
     1    27    28    1
     2    28    29    2
     3    28    30   am
     4    30    21    1
     5    21    22   ar
     6    22    23   ar
     7    23    24   ar
     8    24    20    1
     9    20    19    1
    10    19    18    1
    11    18    17    1
    12    17     1    1
    13     1     2    1
    14     2     3    1
    15     3     4    1
    16     4     7    1
    17     7     8   ar
    18     8     9   ar
    19     9    10   ar
    20    10    11   ar
    21    11    12   ar
    22    12    13    1
    23    12    14   ar
    24    14    15   ar
    25    15    16   ar
    26     4     5    1
    27     5     6    1
    28    24    25   ar
    29    25    26   ar
    30    26    21   ar
    31     6     1    1
    32    16     7   ar
    33    16    10   ar
    34    30    31    1
@<TRIPOS>MOLECULE
*****
 31 34 0 0 0
SMALL
GASTEIGER

@<TRIPOS>ATOM
      1 N         139.2085  138.3804  162.4058 N.3     1  UNL1       -0.2725
      2 C         138.3477  139.5268  162.8472 C.3     1  UNL1        0.0725
      3 C         138.2761  139.8951  164.2995 C.3     1  UNL1        0.0234
      4 C         139.0652  139.1170  165.3105 C.3     1  UNL1        0.0464
      5 C         139.9259  137.9706  164.8690 C.3     1  UNL1        0.0234
      6 C         139.9976  137.6023  163.4167 C.3     1  UNL1        0.0725
      7 C         138.9936  139.4853  166.7628 C.ar    1  UNL1        0.1003
      8 N         138.1746  138.7897  167.8094 N.ar    1  UNL1       -0.0814
      9 O         138.4033  139.4884  169.1169 O.2     1  UNL1       -0.3536
     10 C         139.3635  140.6159  168.8783 C.ar    1  UNL1        0.1787
     11 C         139.9527  141.6440  169.7979 C.ar    1  UNL1        0.0698
     12 C         140.9069  142.6701  169.2626 C.ar    1  UNL1        0.1433
     13 F         141.4962  143.6983  170.1823 F       1  UNL1       -0.2041
     14 C         141.2717  142.6682  167.8077 C.ar    1  UNL1        0.0299
     15 C         140.6824  141.6401  166.8880 C.ar    1  UNL1        0.0067
     16 C         139.7283  140.6139  167.4234 C.ar    1  UNL1        0.0540
     17 C         139.2801  138.0120  160.9535 C.3     1  UNL1        0.0759
     18 C         138.9895  139.0427  159.9031 C.3     1  UNL1        0.0646
     19 C         140.1151  139.6638  159.1302 C.3     1  UNL1        0.2068
     20 O         141.2375  140.3444  159.8562 O.3     1  UNL1       -0.4754
     21 C         140.3368  143.2777  163.1476 C.ar    1  UNL1        0.0505
     22 C         141.2427  142.1113  163.4098 C.ar    1  UNL1        0.0178
     23 C         141.5429  141.1335  162.3126 C.ar    1  UNL1        0.0382
     24 C         140.9373  141.3222  160.9534 C.ar    1  UNL1        0.1386
     25 C         140.0314  142.4886  160.6912 C.ar    1  UNL1        0.0382
     26 C         139.7312  143.4664  161.7884 C.ar    1  UNL1        0.0178
     27 C         138.4104  145.1909  166.0422 C.3     1  UNL1        0.0949
     28 C         138.7107  144.2131  164.9450 C.2     1  UNL1        0.2266
     29 O         137.6852  143.1929  164.5482 O.2     1  UNL1       -0.2748
     30 N         140.0366  144.2556  164.2448 N.am    1  UNL1       -0.2839
     31 H         140.7097  144.9252  164.5052 H       1  UNL1        0.1549
@<TRIPOS>BOND
     1    27    28    1
     2    28    29    2
     3    28    30   am
     4    30    21    1
     5    21    22   ar
     6    22    23   ar
     7    23    24   ar
     8    24    20    1
     9    20    19    1
    10    19    18    1
    11    18    17    1
    12    17     1    1
    13     1     2    1
    14     2     3    1
    15     3     4    1
    16     4     7    1
    17     7     8   ar
    18     8     9   ar
    19     9    10   ar
    20    10    11   ar
    21    11    12   ar
    22    12    13    1
    23    12    14   ar
    24    14    15   ar
    25    15    16   ar
    26     4     5    1
    27     5     6    1
    28    24    25   ar
    29    25    26   ar
    30    26    21   ar
    31     6     1    1
    32    16     7   ar
    33    16    10   ar
    34    30    31    1
@<TRIPOS>MOLECULE
*****
 31 34 0 0 0
SMALL
GASTEIGER

@<TRIPOS>ATOM
      1 N         138.2058  138.9084  162.9460 N.3     1  UNL1       -0.2725
      2 C         138.7845  137.8046  163.7806 C.3     1  UNL1        0.0725
      3 C         139.1479  138.0594  165.2135 C.3     1  UNL1        0.0234
      4 C         138.9326  139.4181  165.8117 C.3     1  UNL1        0.0464
      5 C         138.3540  140.5218  164.9770 C.3     1  UNL1        0.0234
      6 C         137.9906  140.2670  163.5441 C.3     1  UNL1        0.0725
      7 C         139.2960  139.6728  167.2445 C.ar    1  UNL1        0.1003
      8 N         138.4516  139.3445  168.4401 N.ar    1  UNL1       -0.0814
      9 O         139.2013  139.7695  169.6678 O.2     1  UNL1       -0.3536
     10 C         140.5091  140.3604  169.2311 C.ar    1  UNL1        0.1787
     11 C         141.6541  140.9451  170.0036 C.ar    1  UNL1        0.0698
     12 C         142.8576  141.4701  169.2785 C.ar    1  UNL1        0.1433
     13 F         144.0028  142.0549  170.0511 F       1  UNL1       -0.2041
     14 C         142.9161  141.4104  167.7809 C.ar    1  UNL1        0.0299
     15 C         141.7711  140.8257  167.0083 C.ar    1  UNL1        0.0067
     16 C         140.5675  140.3007  167.7334 C.ar    1  UNL1        0.0540
     17 C         137.8425  138.6537  161.5131 C.3     1  UNL1        0.0759
     18 C         138.5648  139.3779  160.4160 C.3     1  UNL1        0.0646
     19 C         139.5969  138.6610  159.5969 C.3     1  UNL1        0.2068
     20 O         141.0465  138.7501  159.9720 O.3     1  UNL1       -0.4754
     21 C         142.3908  141.7274  163.0668 C.ar    1  UNL1        0.0505
     22 C         142.1698  142.1667  161.6497 C.ar    1  UNL1        0.0178
     23 C         141.7217  141.1743  160.6181 C.ar    1  UNL1        0.0382
     24 C         141.4946  139.7426  161.0036 C.ar    1  UNL1        0.1386
     25 C         141.7155  139.3032  162.4207 C.ar    1  UNL1        0.0382
     26 C         142.1636  140.2957  163.4523 C.ar    1  UNL1        0.0178
     27 C         144.7292  143.7698  165.5387 C.3     1  UNL1        0.0949
     28 C         144.2810  142.7775  164.5070 C.2     1  UNL1        0.2266
     29 O         145.2751  141.8428  163.8838 O.2     1  UNL1       -0.2748
     30 N         142.8389  142.7198  164.0985 N.am    1  UNL1       -0.2839
     31 H         142.1865  143.3333  164.5075 H       1  UNL1        0.1549
@<TRIPOS>BOND
     1    27    28    1
     2    28    29    2
     3    28    30   am
     4    30    21    1
     5    21    22   ar
     6    22    23   ar
     7    23    24   ar
     8    24    20    1
     9    20    19    1
    10    19    18    1
    11    18    17    1
    12    17     1    1
    13     1     2    1
    14     2     3    1
    15     3     4    1
    16     4     7    1
    17     7     8   ar
    18     8     9   ar
    19     9    10   ar
    20    10    11   ar
    21    11    12   ar
    22    12    13    1
    23    12    14   ar
    24    14    15   ar
    25    15    16   ar
    26     4     5    1
    27     5     6    1
    28    24    25   ar
    29    25    26   ar
    30    26    21   ar
    31     6     1    1
    32    16     7   ar
    33    16    10   ar
    34    30    31    1
@<TRIPOS>MOLECULE
*****
 31 34 0 0 0
SMALL
GASTEIGER

@<TRIPOS>ATOM
      1 N         142.7610  140.3895  168.3906 N.3     1  UNL1       -0.2725
      2 C         142.9875  141.8281  168.0313 C.3     1  UNL1        0.0725
      3 C         143.2762  142.2097  166.6097 C.3     1  UNL1        0.0234
      4 C         143.3384  141.1525  165.5472 C.3     1  UNL1        0.0464
      5 C         143.1119  139.7140  165.9066 C.3     1  UNL1        0.0234
      6 C         142.8232  139.3325  167.3282 C.3     1  UNL1        0.0725
      7 C         143.6271  141.5340  164.1256 C.ar    1  UNL1        0.1003
      8 N         144.7081  140.9575  163.2601 N.ar    1  UNL1       -0.0814
      9 O         144.6346  141.6262  161.9195 O.2     1  UNL1       -0.3536
     10 C         143.5081  142.6161  161.9564 C.ar    1  UNL1        0.1787
     11 C         142.9689  143.5619  160.9246 C.ar    1  UNL1        0.0698
     12 C         141.8071  144.4508  161.2563 C.ar    1  UNL1        0.1433
     13 F         141.2679  145.3967  160.2245 F       1  UNL1       -0.2041
     14 C         141.1845  144.3938  162.6198 C.ar    1  UNL1        0.0299
     15 C         141.7237  143.4480  163.6515 C.ar    1  UNL1        0.0067
     16 C         142.8855  142.5591  163.3198 C.ar    1  UNL1        0.0540
     17 C         142.4723  140.0080  169.8123 C.3     1  UNL1        0.0759
     18 C         141.0917  139.5741  170.2068 C.3     1  UNL1        0.0646
     19 C         139.8958  140.3216  169.6955 C.3     1  UNL1        0.2068
     20 O         138.8852  139.6218  168.8360 O.3     1  UNL1       -0.4754
     21 C         139.0981  139.9933  164.3565 C.ar    1  UNL1        0.0505
     22 C         139.6704  141.0728  165.2266 C.ar    1  UNL1        0.0178
     23 C         139.5994  140.9490  166.7197 C.ar    1  UNL1        0.0382
     24 C         138.9562  139.7457  167.3428 C.ar    1  UNL1        0.1386
     25 C         138.3839  138.6661  166.4727 C.ar    1  UNL1        0.0382
     26 C         138.4549  138.7900  164.9795 C.ar    1  UNL1        0.0178
     27 C         138.1894  141.0155  160.6310 C.3     1  UNL1        0.0949
     28 C         138.1185  140.8917  162.1242 C.2     1  UNL1        0.2266
     29 O         136.9970  141.5426  162.8783 O.2     1  UNL1       -0.2748
     30 N         139.1691  140.1171  162.8632 N.am    1  UNL1       -0.2839
     31 H         139.9052  139.6899  162.3683 H       1  UNL1        0.1549
@<TRIPOS>BOND
     1    27    28    1
     2    28    29    2
     3    28    30   am
     4    30    21    1
     5    21    22   ar
     6    22    23   ar
     7    23    24   ar
     8    24    20    1
     9    20    19    1
    10    19    18    1
    11    18    17    1
    12    17     1    1
    13     1     2    1
    14     2     3    1
    15     3     4    1
    16     4     7    1
    17     7     8   ar
    18     8     9   ar
    19     9    10   ar
    20    10    11   ar
    21    11    12   ar
    22    12    13    1
    23    12    14   ar
    24    14    15   ar
    25    15    16   ar
    26     4     5    1
    27     5     6    1
    28    24    25   ar
    29    25    26   ar
    30    26    21   ar
    31     6     1    1
    32    16     7   ar
    33    16    10   ar
    34    30    31    1
@<TRIPOS>MOLECULE
*****
 31 34 0 0 0
SMALL
GASTEIGER

@<TRIPOS>ATOM
      1 N         143.0576  138.3259  162.2505 N.3     1  UNL1       -0.2725
      2 C         141.9097  137.8028  163.0622 C.3     1  UNL1        0.0725
      3 C         141.8149  138.1277  164.5235 C.3     1  UNL1        0.0234
      4 C         142.8681  138.9757  165.1732 C.3     1  UNL1        0.0464
      5 C         144.0158  139.4987  164.3615 C.3     1  UNL1        0.0234
      6 C         144.1106  139.1738  162.9002 C.3     1  UNL1        0.0725
      7 C         142.7733  139.3005  166.6345 C.ar    1  UNL1        0.1003
      8 N         143.3699  138.5023  167.7557 N.ar    1  UNL1       -0.0814
      9 O         143.0305  139.1891  169.0453 O.2     1  UNL1       -0.3536
     10 C         142.2242  140.4117  168.7212 C.ar    1  UNL1        0.1787
     11 C         141.6143  141.4712  169.5903 C.ar    1  UNL1        0.0698
     12 C         140.8454  142.5996  168.9695 C.ar    1  UNL1        0.1433
     13 F         140.2354  143.6592  169.8386 F       1  UNL1       -0.2041
     14 C         140.6864  142.6684  167.4795 C.ar    1  UNL1        0.0299
     15 C         141.2963  141.6090  166.6104 C.ar    1  UNL1        0.0067
     16 C         142.0652  140.4806  167.2313 C.ar    1  UNL1        0.0540
     17 C         143.1524  138.0011  160.7892 C.3     1  UNL1        0.0759
     18 C         141.9214  138.0321  159.9326 C.3     1  UNL1        0.0646
     19 C         141.4571  139.3265  159.3333 C.3     1  UNL1        0.2068
     20 O         140.0470  139.7899  159.5497 O.3     1  UNL1       -0.4754
     21 C         138.9734  142.0639  163.2814 C.ar    1  UNL1        0.0505
     22 C         140.4077  141.7357  162.9897 C.ar    1  UNL1        0.0178
     23 C         140.7655  140.9777  161.7458 C.ar    1  UNL1        0.0382
     24 C         139.6891  140.5479  160.7936 C.ar    1  UNL1        0.1386
     25 C         138.2549  140.8761  161.0853 C.ar    1  UNL1        0.0382
     26 C         137.8970  141.6341  162.3292 C.ar    1  UNL1        0.0178
     27 C         138.3411  145.0776  165.7850 C.3     1  UNL1        0.0949
     28 C         138.6991  144.3195  164.5411 C.2     1  UNL1        0.2266
     29 O         139.1406  145.0591  163.3130 O.2     1  UNL1       -0.2748
     30 N         138.6154  142.8219  164.5253 N.am    1  UNL1       -0.2839
     31 H         138.3256  142.3365  165.3313 H       1  UNL1        0.1549
@<TRIPOS>BOND
     1    27    28    1
     2    28    29    2
     3    28    30   am
     4    30    21    1
     5    21    22   ar
     6    22    23   ar
     7    23    24   ar
     8    24    20    1
     9    20    19    1
    10    19    18    1
    11    18    17    1
    12    17     1    1
    13     1     2    1
    14     2     3    1
    15     3     4    1
    16     4     7    1
    17     7     8   ar
    18     8     9   ar
    19     9    10   ar
    20    10    11   ar
    21    11    12   ar
    22    12    13    1
    23    12    14   ar
    24    14    15   ar
    25    15    16   ar
    26     4     5    1
    27     5     6    1
    28    24    25   ar
    29    25    26   ar
    30    26    21   ar
    31     6     1    1
    32    16     7   ar
    33    16    10   ar
    34    30    31    1
@<TRIPOS>MOLECULE
*****
 31 34 0 0 0
SMALL
GASTEIGER

@<TRIPOS>ATOM
      1 N         139.5282  138.3899  161.9987 N.3     1  UNL1       -0.2725
      2 C         140.1445  137.4917  163.0299 C.3     1  UNL1        0.0725
      3 C         139.8375  137.6975  164.4837 C.3     1  UNL1        0.0234
      4 C         138.9141  138.8016  164.9062 C.3     1  UNL1        0.0464
      5 C         138.2979  139.6998  163.8751 C.3     1  UNL1        0.0234
      6 C         138.6049  139.4940  162.4213 C.3     1  UNL1        0.0725
      7 C         138.6071  139.0074  166.3600 C.ar    1  UNL1        0.1003
      8 N         137.5017  138.3474  167.1297 N.ar    1  UNL1       -0.0814
      9 O         137.5631  138.8415  168.5447 O.2     1  UNL1       -0.3536
     10 C         138.7064  139.8068  168.6495 C.ar    1  UNL1        0.1787
     11 C         139.2432  140.6057  169.7999 C.ar    1  UNL1        0.0698
     12 C         140.4254  141.5072  169.6001 C.ar    1  UNL1        0.1433
     13 F         140.9623  142.3061  170.7505 F       1  UNL1       -0.2041
     14 C         141.0706  141.6097  168.2499 C.ar    1  UNL1        0.0299
     15 C         140.5338  140.8108  167.0994 C.ar    1  UNL1        0.0067
     16 C         139.3517  139.9094  167.2992 C.ar    1  UNL1        0.0540
     17 C         139.8352  138.1841  160.5450 C.3     1  UNL1        0.0759
     18 C         140.8901  139.0148  159.8763 C.3     1  UNL1        0.0646
     19 C         141.9249  138.3585  159.0112 C.3     1  UNL1        0.2068
     20 O         143.3525  138.8150  159.0721 O.3     1  UNL1       -0.4754
     21 C         144.7397  141.4161  162.4720 C.ar    1  UNL1        0.0505
     22 C         144.4283  142.0280  161.1384 C.ar    1  UNL1        0.0178
     23 C         143.9659  141.1609  160.0051 C.ar    1  UNL1        0.0382
     24 C         143.8149  139.6821  160.2054 C.ar    1  UNL1        0.1386
     25 C         144.1263  139.0702  161.5390 C.ar    1  UNL1        0.0382
     26 C         144.5888  139.9372  162.6723 C.ar    1  UNL1        0.0178
     27 C         144.6601  143.8465  165.6083 C.3     1  UNL1        0.0949
     28 C         144.1978  142.9795  164.4750 C.2     1  UNL1        0.2266
     29 O         142.7309  142.8090  164.2112 O.2     1  UNL1       -0.2748
     30 N         145.2022  142.2831  163.6054 N.am    1  UNL1       -0.2839
     31 H         146.1648  142.3951  163.7785 H       1  UNL1        0.1549
@<TRIPOS>BOND
     1    27    28    1
     2    28    29    2
     3    28    30   am
     4    30    21    1
     5    21    22   ar
     6    22    23   ar
     7    23    24   ar
     8    24    20    1
     9    20    19    1
    10    19    18    1
    11    18    17    1
    12    17     1    1
    13     1     2    1
    14     2     3    1
    15     3     4    1
    16     4     7    1
    17     7     8   ar
    18     8     9   ar
    19     9    10   ar
    20    10    11   ar
    21    11    12   ar
    22    12    13    1
    23    12    14   ar
    24    14    15   ar
    25    15    16   ar
    26     4     5    1
    27     5     6    1
    28    24    25   ar
    29    25    26   ar
    30    26    21   ar
    31     6     1    1
    32    16     7   ar
    33    16    10   ar
    34    30    31    1
