@<TRIPOS>MOLECULE
*****
 26 29 0 0 0
SMALL
GASTEIGER

@<TRIPOS>ATOM
      1 C         141.3235  141.0738  166.9241 C.3     1  UNL1        0.0520
      2 C         138.2426  138.8574  165.7639 C.ar    1  UNL1        0.0204
      3 C         137.5798  138.5819  167.0809 C.ar    1  UNL1        0.0989
      4 N         138.1648  139.1370  168.3457 N.ar    1  UNL1       -0.2426
      5 C         139.4127  139.9676  168.2934 C.ar    1  UNL1        0.0949
      6 C         140.0756  140.2431  166.9764 C.ar    1  UNL1        0.0011
      7 C         139.4906  139.6880  165.7116 C.ar    1  UNL1       -0.0008
      8 C         141.7901  141.8044  168.1482 C.ar    1  UNL1        0.0011
      9 C         143.1300  141.4897  168.7444 C.ar    1  UNL1       -0.0008
     10 C         143.5966  142.2203  169.9685 C.ar    1  UNL1        0.0204
     11 C         142.7231  143.2655  170.5966 C.ar    1  UNL1        0.0989
     12 N         141.3830  143.5802  170.0005 N.ar    1  UNL1       -0.2426
     13 C         140.9165  142.8496  168.7763 C.ar    1  UNL1        0.0949
     14 C         142.1049  141.1738  165.6476 C.3     1  UNL1        0.0352
     15 C         142.5836  142.5106  165.1640 C.ar    1  UNL1       -0.0215
     16 C         143.9709  142.9752  165.4951 C.ar    1  UNL1       -0.0042
     17 C         144.4496  144.3120  165.0116 C.ar    1  UNL1       -0.0003
     18 C         143.5410  145.1842  164.1969 C.ar    1  UNL1       -0.0000
     19 C         142.1537  144.7196  163.8659 C.ar    1  UNL1       -0.0003
     20 C         141.6750  143.3829  164.3494 C.ar    1  UNL1       -0.0038
     21 C         140.2877  142.9183  164.0183 C.ar    1  UNL1        0.0028
     22 C         140.0529  142.0568  162.8131 C.ar    1  UNL1        0.0207
     23 C         138.6656  141.5922  162.4820 C.ar    1  UNL1        0.0989
     24 N         137.5131  141.9892  163.3562 N.ar    1  UNL1       -0.2423
     25 C         137.7480  142.8507  164.5614 C.ar    1  UNL1        0.0989
     26 C         139.1352  143.3153  164.8925 C.ar    1  UNL1        0.0207
@<TRIPOS>BOND
     1     2     3   ar
     2     3     4   ar
     3     4     5   ar
     4     5     6   ar
     5     6     1    1
     6     1    14    1
     7    14    15    1
     8    15    16   ar
     9    16    17   ar
    10    17    18   ar
    11    18    19   ar
    12    19    20   ar
    13    20    21    1
    14    21    22   ar
    15    22    23   ar
    16    23    24   ar
    17    24    25   ar
    18    25    26   ar
    19     1     8    1
    20     8     9   ar
    21     9    10   ar
    22    10    11   ar
    23    11    12   ar
    24    12    13   ar
    25     6     7   ar
    26     7     2   ar
    27    20    15   ar
    28    26    21   ar
    29    13     8   ar
@<TRIPOS>MOLECULE
*****
 26 29 0 0 0
SMALL
GASTEIGER

@<TRIPOS>ATOM
      1 C         141.3190  141.0724  166.9265 C.3     1  UNL1        0.0520
      2 C         143.5624  142.2408  169.9846 C.ar    1  UNL1        0.0204
      3 C         142.6811  143.2876  170.5990 C.ar    1  UNL1        0.0989
      4 N         141.3458  143.5960  169.9893 N.ar    1  UNL1       -0.2426
      5 C         140.8917  142.8576  168.7651 C.ar    1  UNL1        0.0949
      6 C         141.7730  141.8108  168.1507 C.ar    1  UNL1        0.0011
      7 C         143.1084  141.5025  168.7605 C.ar    1  UNL1       -0.0008
      8 C         140.0737  140.2376  166.9730 C.ar    1  UNL1        0.0011
      9 C         139.4975  139.6790  165.7057 C.ar    1  UNL1       -0.0008
     10 C         138.2521  138.8442  165.7522 C.ar    1  UNL1        0.0204
     11 C         137.5830  138.5679  167.0659 C.ar    1  UNL1        0.0989
     12 N         138.1592  139.1265  168.3332 N.ar    1  UNL1       -0.2426
     13 C         139.4045  139.9613  168.2868 C.ar    1  UNL1        0.0949
     14 C         142.1104  141.1688  165.6559 C.3     1  UNL1        0.0352
     15 C         142.5928  142.5043  165.1723 C.ar    1  UNL1       -0.0215
     16 C         143.9821  142.9641  165.5017 C.ar    1  UNL1       -0.0042
     17 C         144.4645  144.2995  165.0181 C.ar    1  UNL1       -0.0003
     18 C         143.5577  145.1750  164.2051 C.ar    1  UNL1       -0.0000
     19 C         142.1685  144.7152  163.8756 C.ar    1  UNL1       -0.0003
     20 C         141.6860  143.3798  164.3592 C.ar    1  UNL1       -0.0038
     21 C         140.2968  142.9200  164.0298 C.ar    1  UNL1        0.0028
     22 C         140.0583  142.0550  162.8278 C.ar    1  UNL1        0.0207
     23 C         138.6691  141.5951  162.4984 C.ar    1  UNL1        0.0989
     24 N         137.5183  142.0003  163.3710 N.ar    1  UNL1       -0.2423
     25 C         137.7567  142.8654  164.5729 C.ar    1  UNL1        0.0989
     26 C         139.1460  143.3252  164.9024 C.ar    1  UNL1        0.0207
@<TRIPOS>BOND
     1     2     3   ar
     2     3     4   ar
     3     4     5   ar
     4     5     6   ar
     5     6     1    1
     6     1    14    1
     7    14    15    1
     8    15    16   ar
     9    16    17   ar
    10    17    18   ar
    11    18    19   ar
    12    19    20   ar
    13    20    21    1
    14    21    22   ar
    15    22    23   ar
    16    23    24   ar
    17    24    25   ar
    18    25    26   ar
    19     1     8    1
    20     8     9   ar
    21     9    10   ar
    22    10    11   ar
    23    11    12   ar
    24    12    13   ar
    25     6     7   ar
    26     7     2   ar
    27    20    15   ar
    28    26    21   ar
    29    13     8   ar
@<TRIPOS>MOLECULE
*****
 26 29 0 0 0
SMALL
GASTEIGER

@<TRIPOS>ATOM
      1 C         141.7238  141.7151  165.3038 C.3     1  UNL1        0.0520
      2 C         138.9301  144.5338  165.3175 C.ar    1  UNL1        0.0204
      3 C         138.3438  144.3584  163.9481 C.ar    1  UNL1        0.0989
      4 N         138.8840  143.3019  163.0306 N.ar    1  UNL1       -0.2426
      5 C         140.0107  142.4208  163.4825 C.ar    1  UNL1        0.0949
      6 C         140.5971  142.5962  164.8519 C.ar    1  UNL1        0.0011
      7 C         140.0568  143.6528  165.7694 C.ar    1  UNL1       -0.0008
      8 C         143.0406  141.7542  164.5865 C.ar    1  UNL1        0.0011
      9 C         143.9284  140.5452  164.5820 C.ar    1  UNL1       -0.0008
     10 C         145.2452  140.5844  163.8646 C.ar    1  UNL1        0.0204
     11 C         145.6741  141.8324  163.1518 C.ar    1  UNL1        0.0989
     12 N         144.7863  143.0415  163.1562 N.ar    1  UNL1       -0.2426
     13 C         143.4695  143.0024  163.8736 C.ar    1  UNL1        0.0949
     14 C         141.5338  140.7950  166.4730 C.3     1  UNL1        0.0352
     15 C         140.2555  140.0240  166.6207 C.ar    1  UNL1       -0.0215
     16 C         139.6937  139.2721  165.4507 C.ar    1  UNL1       -0.0042
     17 C         138.4155  138.5012  165.5983 C.ar    1  UNL1       -0.0003
     18 C         137.6991  138.4822  166.9160 C.ar    1  UNL1       -0.0000
     19 C         138.2609  139.2341  168.0861 C.ar    1  UNL1       -0.0003
     20 C         139.5391  140.0050  167.9384 C.ar    1  UNL1       -0.0038
     21 C         140.1009  140.7570  169.1085 C.ar    1  UNL1        0.0028
     22 C         139.9335  142.2451  169.1940 C.ar    1  UNL1        0.0207
     23 C         140.4953  142.9970  170.3640 C.ar    1  UNL1        0.0989
     24 N         141.2245  142.2608  171.4486 N.ar    1  UNL1       -0.2423
     25 C         141.3918  140.7727  171.3630 C.ar    1  UNL1        0.0989
     26 C         140.8300  140.0207  170.1930 C.ar    1  UNL1        0.0207
@<TRIPOS>BOND
     1     2     3   ar
     2     3     4   ar
     3     4     5   ar
     4     5     6   ar
     5     6     1    1
     6     1    14    1
     7    14    15    1
     8    15    16   ar
     9    16    17   ar
    10    17    18   ar
    11    18    19   ar
    12    19    20   ar
    13    20    21    1
    14    21    22   ar
    15    22    23   ar
    16    23    24   ar
    17    24    25   ar
    18    25    26   ar
    19     1     8    1
    20     8     9   ar
    21     9    10   ar
    22    10    11   ar
    23    11    12   ar
    24    12    13   ar
    25     6     7   ar
    26     7     2   ar
    27    20    15   ar
    28    26    21   ar
    29    13     8   ar
@<TRIPOS>MOLECULE
*****
 26 29 0 0 0
SMALL
GASTEIGER

@<TRIPOS>ATOM
      1 C         141.7524  141.5279  165.2935 C.3     1  UNL1        0.0520
      2 C         145.3506  140.5690  163.9208 C.ar    1  UNL1        0.0204
      3 C         145.7162  141.8231  163.1837 C.ar    1  UNL1        0.0989
      4 N         144.7606  142.9788  163.1498 N.ar    1  UNL1       -0.2426
      5 C         143.4394  142.8804  163.8530 C.ar    1  UNL1        0.0949
      6 C         143.0737  141.6263  164.5902 C.ar    1  UNL1        0.0011
      7 C         144.0293  140.4706  164.6241 C.ar    1  UNL1       -0.0008
      8 C         140.6069  142.3950  164.8624 C.ar    1  UNL1        0.0011
      9 C         140.1412  143.5154  165.7442 C.ar    1  UNL1       -0.0008
     10 C         138.9957  144.3826  165.3132 C.ar    1  UNL1        0.0204
     11 C         138.3159  144.1293  164.0003 C.ar    1  UNL1        0.0989
     12 N         138.7816  143.0088  163.1184 N.ar    1  UNL1       -0.2426
     13 C         139.9272  142.1417  163.5494 C.ar    1  UNL1        0.0949
     14 C         141.5767  140.5623  166.4278 C.3     1  UNL1        0.0352
     15 C         140.2670  139.8553  166.6149 C.ar    1  UNL1       -0.0215
     16 C         139.6946  139.0296  165.5011 C.ar    1  UNL1       -0.0042
     17 C         138.3850  138.3226  165.6882 C.ar    1  UNL1       -0.0003
     18 C         137.6478  138.4414  166.9891 C.ar    1  UNL1       -0.0000
     19 C         138.2201  139.2671  168.1029 C.ar    1  UNL1       -0.0003
     20 C         139.5298  139.9741  167.9158 C.ar    1  UNL1       -0.0038
     21 C         140.1021  140.7998  169.0296 C.ar    1  UNL1        0.0028
     22 C         140.8124  140.1321  170.1696 C.ar    1  UNL1        0.0207
     23 C         141.3848  140.9579  171.2835 C.ar    1  UNL1        0.0989
     24 N         141.2469  142.4512  171.2572 N.ar    1  UNL1       -0.2423
     25 C         140.5367  143.1189  170.1172 C.ar    1  UNL1        0.0989
     26 C         139.9643  142.2932  169.0034 C.ar    1  UNL1        0.0207
@<TRIPOS>BOND
     1     2     3   ar
     2     3     4   ar
     3     4     5   ar
     4     5     6   ar
     5     6     1    1
     6     1    14    1
     7    14    15    1
     8    15    16   ar
     9    16    17   ar
    10    17    18   ar
    11    18    19   ar
    12    19    20   ar
    13    20    21    1
    14    21    22   ar
    15    22    23   ar
    16    23    24   ar
    17    24    25   ar
    18    25    26   ar
    19     1     8    1
    20     8     9   ar
    21     9    10   ar
    22    10    11   ar
    23    11    12   ar
    24    12    13   ar
    25     6     7   ar
    26     7     2   ar
    27    20    15   ar
    28    26    21   ar
    29    13     8   ar
@<TRIPOS>MOLECULE
*****
 26 29 0 0 0
SMALL
GASTEIGER

@<TRIPOS>ATOM
      1 C         141.2066  143.2529  164.2809 C.3     1  UNL1        0.0520
      2 C         141.2385  144.9757  160.7058 C.ar    1  UNL1        0.0204
      3 C         139.9876  145.8002  160.7773 C.ar    1  UNL1        0.0989
      4 N         139.1429  145.7757  162.0166 N.ar    1  UNL1       -0.2426
      5 C         139.5492  144.9266  163.1845 C.ar    1  UNL1        0.0949
      6 C         140.8002  144.1021  163.1130 C.ar    1  UNL1        0.0011
      7 C         141.6449  144.1266  161.8736 C.ar    1  UNL1       -0.0008
      8 C         142.5069  142.5058  164.2485 C.ar    1  UNL1        0.0011
      9 C         143.7733  143.1855  164.6776 C.ar    1  UNL1       -0.0008
     10 C         145.0736  142.4383  164.6452 C.ar    1  UNL1        0.0204
     11 C         145.1075  141.0116  164.1837 C.ar    1  UNL1        0.0989
     12 N         143.8410  140.3318  163.7545 N.ar    1  UNL1       -0.2426
     13 C         142.5407  141.0789  163.7869 C.ar    1  UNL1        0.0949
     14 C         140.3127  143.1509  165.4811 C.3     1  UNL1        0.0352
     15 C         139.6966  141.8333  165.8476 C.ar    1  UNL1       -0.0215
     16 C         138.7386  141.1656  164.9061 C.ar    1  UNL1       -0.0042
     17 C         138.1224  139.8480  165.2725 C.ar    1  UNL1       -0.0003
     18 C         138.4643  139.1981  166.5805 C.ar    1  UNL1       -0.0000
     19 C         139.4223  139.8658  167.5220 C.ar    1  UNL1       -0.0003
     20 C         140.0384  141.1834  167.1555 C.ar    1  UNL1       -0.0038
     21 C         140.9964  141.8511  168.0970 C.ar    1  UNL1        0.0028
     22 C         140.4834  142.7910  169.1474 C.ar    1  UNL1        0.0207
     23 C         141.4414  143.4587  170.0889 C.ar    1  UNL1        0.0989
     24 N         142.9124  143.1866  169.9800 N.ar    1  UNL1       -0.2423
     25 C         143.4255  142.2467  168.9296 C.ar    1  UNL1        0.0989
     26 C         142.4675  141.5790  167.9881 C.ar    1  UNL1        0.0207
@<TRIPOS>BOND
     1     2     3   ar
     2     3     4   ar
     3     4     5   ar
     4     5     6   ar
     5     6     1    1
     6     1    14    1
     7    14    15    1
     8    15    16   ar
     9    16    17   ar
    10    17    18   ar
    11    18    19   ar
    12    19    20   ar
    13    20    21    1
    14    21    22   ar
    15    22    23   ar
    16    23    24   ar
    17    24    25   ar
    18    25    26   ar
    19     1     8    1
    20     8     9   ar
    21     9    10   ar
    22    10    11   ar
    23    11    12   ar
    24    12    13   ar
    25     6     7   ar
    26     7     2   ar
    27    20    15   ar
    28    26    21   ar
    29    13     8   ar
@<TRIPOS>MOLECULE
*****
 26 29 0 0 0
SMALL
GASTEIGER

@<TRIPOS>ATOM
      1 C         139.9048  141.0982  165.8997 C.3     1  UNL1        0.0520
      2 C         138.8898  144.7391  164.6897 C.ar    1  UNL1        0.0204
      3 C         137.9096  144.4133  163.6019 C.ar    1  UNL1        0.0989
      4 N         137.5946  142.9825  163.2801 N.ar    1  UNL1       -0.2426
      5 C         138.2596  141.8775  164.0460 C.ar    1  UNL1        0.0949
      6 C         139.2397  142.2033  165.1337 C.ar    1  UNL1        0.0011
      7 C         139.5548  143.6341  165.4556 C.ar    1  UNL1       -0.0008
      8 C         139.2026  139.7857  166.0846 C.ar    1  UNL1        0.0011
      9 C         139.4161  138.6755  165.0988 C.ar    1  UNL1       -0.0008
     10 C         138.7139  137.3630  165.2837 C.ar    1  UNL1        0.0204
     11 C         137.7982  137.1606  166.4543 C.ar    1  UNL1        0.0989
     12 N         137.5847  138.2708  167.4402 N.ar    1  UNL1       -0.2426
     13 C         138.2869  139.5834  167.2553 C.ar    1  UNL1        0.0949
     14 C         141.2720  141.3058  166.4808 C.3     1  UNL1        0.0352
     15 C         142.4355  140.5138  165.9621 C.ar    1  UNL1       -0.0215
     16 C         142.8356  139.2371  166.6403 C.ar    1  UNL1       -0.0042
     17 C         143.9991  138.4451  166.1217 C.ar    1  UNL1       -0.0003
     18 C         144.7625  138.9298  164.9249 C.ar    1  UNL1       -0.0000
     19 C         144.3624  140.2065  164.2468 C.ar    1  UNL1       -0.0003
     20 C         143.1989  140.9985  164.7654 C.ar    1  UNL1       -0.0038
     21 C         142.7988  142.2752  164.0872 C.ar    1  UNL1        0.0028
     22 C         143.2821  143.5912  164.6206 C.ar    1  UNL1        0.0207
     23 C         142.8820  144.8679  163.9424 C.ar    1  UNL1        0.0989
     24 N         141.9985  144.8287  162.7309 N.ar    1  UNL1       -0.2423
     25 C         141.5151  143.5127  162.1975 C.ar    1  UNL1        0.0989
     26 C         141.9153  142.2360  162.8757 C.ar    1  UNL1        0.0207
@<TRIPOS>BOND
     1     2     3   ar
     2     3     4   ar
     3     4     5   ar
     4     5     6   ar
     5     6     1    1
     6     1    14    1
     7    14    15    1
     8    15    16   ar
     9    16    17   ar
    10    17    18   ar
    11    18    19   ar
    12    19    20   ar
    13    20    21    1
    14    21    22   ar
    15    22    23   ar
    16    23    24   ar
    17    24    25   ar
    18    25    26   ar
    19     1     8    1
    20     8     9   ar
    21     9    10   ar
    22    10    11   ar
    23    11    12   ar
    24    12    13   ar
    25     6     7   ar
    26     7     2   ar
    27    20    15   ar
    28    26    21   ar
    29    13     8   ar
@<TRIPOS>MOLECULE
*****
 26 29 0 0 0
SMALL
GASTEIGER

@<TRIPOS>ATOM
      1 C         141.2745  143.2254  164.2631 C.3     1  UNL1        0.0520
      2 C         145.1398  142.3786  164.5671 C.ar    1  UNL1        0.0204
      3 C         145.1537  140.9499  164.1107 C.ar    1  UNL1        0.0989
      4 N         143.8746  140.2796  163.7051 N.ar    1  UNL1       -0.2426
      5 C         142.5815  141.0381  163.7559 C.ar    1  UNL1        0.0949
      6 C         142.5676  142.4668  164.2123 C.ar    1  UNL1        0.0011
      7 C         143.8467  143.1371  164.6179 C.ar    1  UNL1       -0.0008
      8 C         140.8543  144.0704  163.0972 C.ar    1  UNL1        0.0011
      9 C         141.6874  144.0951  161.8500 C.ar    1  UNL1       -0.0008
     10 C         141.2672  144.9401  160.6840 C.ar    1  UNL1        0.0204
     11 C         140.0140  145.7603  160.7652 C.ar    1  UNL1        0.0989
     12 N         139.1809  145.7356  162.0124 N.ar    1  UNL1       -0.2426
     13 C         139.6011  144.8907  163.1784 C.ar    1  UNL1        0.0949
     14 C         140.4016  143.1390  165.4799 C.3     1  UNL1        0.0352
     15 C         139.7593  141.8353  165.8512 C.ar    1  UNL1       -0.0215
     16 C         138.8117  141.1680  164.8989 C.ar    1  UNL1       -0.0042
     17 C         138.1694  139.8644  165.2701 C.ar    1  UNL1       -0.0003
     18 C         138.4747  139.2279  166.5935 C.ar    1  UNL1       -0.0000
     19 C         139.4224  139.8951  167.5458 C.ar    1  UNL1       -0.0003
     20 C         140.0646  141.1988  167.1746 C.ar    1  UNL1       -0.0038
     21 C         141.0123  141.8660  168.1269 C.ar    1  UNL1        0.0028
     22 C         140.4888  142.8130  169.1657 C.ar    1  UNL1        0.0207
     23 C         141.4364  143.4802  170.1180 C.ar    1  UNL1        0.0989
     24 N         142.9075  143.2004  170.0315 N.ar    1  UNL1       -0.2423
     25 C         143.4310  142.2535  168.9927 C.ar    1  UNL1        0.0989
     26 C         142.4834  141.5863  168.0404 C.ar    1  UNL1        0.0207
@<TRIPOS>BOND
     1     2     3   ar
     2     3     4   ar
     3     4     5   ar
     4     5     6   ar
     5     6     1    1
     6     1    14    1
     7    14    15    1
     8    15    16   ar
     9    16    17   ar
    10    17    18   ar
    11    18    19   ar
    12    19    20   ar
    13    20    21    1
    14    21    22   ar
    15    22    23   ar
    16    23    24   ar
    17    24    25   ar
    18    25    26   ar
    19     1     8    1
    20     8     9   ar
    21     9    10   ar
    22    10    11   ar
    23    11    12   ar
    24    12    13   ar
    25     6     7   ar
    26     7     2   ar
    27    20    15   ar
    28    26    21   ar
    29    13     8   ar
@<TRIPOS>MOLECULE
*****
 26 29 0 0 0
SMALL
GASTEIGER

@<TRIPOS>ATOM
      1 C         139.8618  141.0164  165.9224 C.3     1  UNL1        0.0520
      2 C         138.7377  137.2657  165.2752 C.ar    1  UNL1        0.0204
      3 C         137.7342  137.0769  166.3739 C.ar    1  UNL1        0.0989
      4 N         137.4398  138.2013  167.3221 N.ar    1  UNL1       -0.2426
      5 C         138.1490  139.5145  167.1716 C.ar    1  UNL1        0.0949
      6 C         139.1525  139.7032  166.0729 C.ar    1  UNL1        0.0011
      7 C         139.4469  138.5788  165.1247 C.ar    1  UNL1       -0.0008
      8 C         139.2216  142.1301  165.1478 C.ar    1  UNL1        0.0011
      9 C         139.5594  143.5563  165.4668 C.ar    1  UNL1       -0.0008
     10 C         138.9192  144.6699  164.6923 C.ar    1  UNL1        0.0204
     11 C         137.9412  144.3574  163.5988 C.ar    1  UNL1        0.0989
     12 N         137.6033  142.9311  163.2798 N.ar    1  UNL1       -0.2426
     13 C         138.2435  141.8175  164.0543 C.ar    1  UNL1        0.0949
     14 C         141.2112  141.2158  166.5463 C.3     1  UNL1        0.0352
     15 C         142.3832  140.4081  166.0730 C.ar    1  UNL1       -0.0215
     16 C         142.7530  139.1377  166.7797 C.ar    1  UNL1       -0.0042
     17 C         143.9249  138.3300  166.3064 C.ar    1  UNL1       -0.0003
     18 C         144.7271  138.7926  165.1264 C.ar    1  UNL1       -0.0000
     19 C         144.3573  140.0629  164.4197 C.ar    1  UNL1       -0.0003
     20 C         143.1853  140.8707  164.8929 C.ar    1  UNL1       -0.0038
     21 C         142.8155  142.1410  164.1862 C.ar    1  UNL1        0.0028
     22 C         143.3037  143.4595  164.7089 C.ar    1  UNL1        0.0207
     23 C         142.9339  144.7298  164.0021 C.ar    1  UNL1        0.0989
     24 N         142.0760  144.6817  162.7727 N.ar    1  UNL1       -0.2423
     25 C         141.5878  143.3632  162.2500 C.ar    1  UNL1        0.0989
     26 C         141.9576  142.0929  162.9568 C.ar    1  UNL1        0.0207
@<TRIPOS>BOND
     1     2     3   ar
     2     3     4   ar
     3     4     5   ar
     4     5     6   ar
     5     6     1    1
     6     1    14    1
     7    14    15    1
     8    15    16   ar
     9    16    17   ar
    10    17    18   ar
    11    18    19   ar
    12    19    20   ar
    13    20    21    1
    14    21    22   ar
    15    22    23   ar
    16    23    24   ar
    17    24    25   ar
    18    25    26   ar
    19     1     8    1
    20     8     9   ar
    21     9    10   ar
    22    10    11   ar
    23    11    12   ar
    24    12    13   ar
    25     6     7   ar
    26     7     2   ar
    27    20    15   ar
    28    26    21   ar
    29    13     8   ar
@<TRIPOS>MOLECULE
*****
 26 29 0 0 0
SMALL
GASTEIGER

@<TRIPOS>ATOM
      1 C         141.5671  141.5571  166.3265 C.3     1  UNL1        0.0520
      2 C         144.3504  139.6798  164.2102 C.ar    1  UNL1        0.0204
      3 C         144.8381  140.7937  163.3320 C.ar    1  UNL1        0.0989
      4 N         144.2356  142.1621  163.4519 N.ar    1  UNL1       -0.2426
      5 C         143.1452  142.4166  164.4501 C.ar    1  UNL1        0.0949
      6 C         142.6575  141.3027  165.3283 C.ar    1  UNL1        0.0011
      7 C         143.2601  139.9343  165.2083 C.ar    1  UNL1       -0.0008
      8 C         141.9016  142.1239  167.6744 C.ar    1  UNL1        0.0011
      9 C         140.8145  142.6823  168.5441 C.ar    1  UNL1       -0.0008
     10 C         141.1490  143.2490  169.8920 C.ar    1  UNL1        0.0204
     11 C         142.5706  143.2573  170.3703 C.ar    1  UNL1        0.0989
     12 N         143.6579  142.6989  169.5007 N.ar    1  UNL1       -0.2426
     13 C         143.3233  142.1321  168.1527 C.ar    1  UNL1        0.0949
     14 C         140.1423  141.2449  165.9768 C.3     1  UNL1        0.0352
     15 C         139.3998  142.1159  165.0071 C.ar    1  UNL1       -0.0215
     16 C         139.0119  143.5113  165.3973 C.ar    1  UNL1       -0.0042
     17 C         138.2695  144.3822  164.4277 C.ar    1  UNL1       -0.0003
     18 C         137.9150  143.8578  163.0678 C.ar    1  UNL1       -0.0000
     19 C         138.3030  142.4624  162.6776 C.ar    1  UNL1       -0.0003
     20 C         139.0454  141.5914  163.6472 C.ar    1  UNL1       -0.0038
     21 C         139.4334  140.1960  163.2570 C.ar    1  UNL1        0.0028
     22 C         138.5395  139.0434  163.6068 C.ar    1  UNL1        0.0207
     23 C         138.9275  137.6480  163.2166 C.ar    1  UNL1        0.0989
     24 N         140.2093  137.4052  162.4765 N.ar    1  UNL1       -0.2423
     25 C         141.1032  138.5577  162.1266 C.ar    1  UNL1        0.0989
     26 C         140.7153  139.9532  162.5169 C.ar    1  UNL1        0.0207
@<TRIPOS>BOND
     1     2     3   ar
     2     3     4   ar
     3     4     5   ar
     4     5     6   ar
     5     6     1    1
     6     1    14    1
     7    14    15    1
     8    15    16   ar
     9    16    17   ar
    10    17    18   ar
    11    18    19   ar
    12    19    20   ar
    13    20    21    1
    14    21    22   ar
    15    22    23   ar
    16    23    24   ar
    17    24    25   ar
    18    25    26   ar
    19     1     8    1
    20     8     9   ar
    21     9    10   ar
    22    10    11   ar
    23    11    12   ar
    24    12    13   ar
    25     6     7   ar
    26     7     2   ar
    27    20    15   ar
    28    26    21   ar
    29    13     8   ar
