@<TRIPOS>MOLECULE
*****
 29 32 0 0 0
SMALL
GASTEIGER

@<TRIPOS>ATOM
      1 C         139.1836  138.4421  163.0978 C.3     1  UNL1        0.0559
      2 C         139.3734  139.4662  164.1772 C.3     1  UNL1        0.2097
      3 N         139.5539  139.1833  165.6391 N.pl3   1  UNL1       -0.2170
      4 C         139.7081  140.4953  166.3496 C.2     1  UNL1        0.3340
      5 N         139.6230  141.5891  165.3268 N.2     1  UNL1       -0.0600
      6 C         139.4162  140.9532  163.9841 C.3     1  UNL1        0.2515
      7 H         139.5685  138.2928  166.0587 H       1  UNL1        0.2923
      8 C         139.2092  140.6131  162.5379 C.ar    1  UNL1        0.0297
      9 C         137.8232  140.3826  162.0126 C.ar    1  UNL1        0.0025
     10 C         137.6162  140.0425  160.5663 C.ar    1  UNL1        0.0295
     11 C         138.7951  139.9330  159.6455 C.ar    1  UNL1        0.1401
     12 F         138.5881  139.5930  158.1993 F       1  UNL1       -0.2042
     13 C         140.1812  140.1636  160.1708 C.ar    1  UNL1        0.0295
     14 C         140.3882  140.5036  161.6170 C.ar    1  UNL1        0.0025
     15 C         139.4156  142.3690  163.4887 C.ar    1  UNL1        0.0488
     16 C         140.7065  143.1246  163.3758 C.ar    1  UNL1        0.0057
     17 C         140.7060  144.5404  162.8804 C.ar    1  UNL1        0.0495
     18 C         139.4146  145.2006  162.4978 C.ar    1  UNL1        0.2223
     19 F         139.4141  146.6165  162.0024 F       1  UNL1       -0.1832
     20 N         138.1237  144.4451  162.6107 N.ar    1  UNL1       -0.2166
     21 C         138.1242  143.0292  163.1061 C.ar    1  UNL1        0.1014
     22 C         139.9117  140.6809  167.8242 C.ar    1  UNL1        0.1633
     23 C         140.9373  141.6553  168.3229 C.ar    1  UNL1        0.0370
     24 C         141.1408  141.8408  169.7973 C.ar    1  UNL1        0.0717
     25 C         140.3189  141.0520  170.7731 C.ar    1  UNL1        0.0310
     26 C         139.2934  140.0776  170.2744 C.ar    1  UNL1        0.0998
     27 N         139.0898  139.8920  168.7999 N.ar    1  UNL1       -0.2364
     28 C         142.1664  142.8153  170.2961 C.1     1  UNL1        0.1005
     29 N         143.1919  143.7897  170.7949 N.1     1  UNL1       -0.1908
@<TRIPOS>BOND
     1     2     1    1
     2     2     3    1
     3     3     4    1
     4     4    22    1
     5    22    23   ar
     6    23    24   ar
     7    24    28    1
     8    28    29    3
     9    24    25   ar
    10    25    26   ar
    11    26    27   ar
    12     4     5    2
    13     5     6    1
    14     6     8    1
    15     8     9   ar
    16     9    10   ar
    17    10    11   ar
    18    11    12    1
    19    11    13   ar
    20    13    14   ar
    21     6    15    1
    22    15    16   ar
    23    16    17   ar
    24    17    18   ar
    25    18    19    1
    26    18    20   ar
    27    20    21   ar
    28     6     2    1
    29    14     8   ar
    30    21    15   ar
    31    27    22   ar
    32     3     7    1
@<TRIPOS>MOLECULE
*****
 29 32 0 0 0
SMALL
GASTEIGER

@<TRIPOS>ATOM
      1 C         140.9396  137.5736  164.7506 C.3     1  UNL1        0.0559
      2 C         140.7785  138.1588  163.3789 C.3     1  UNL1        0.2097
      3 N         141.2735  137.5541  162.0986 N.pl3   1  UNL1       -0.2170
      4 C         140.8951  138.4731  160.9751 C.2     1  UNL1        0.3340
      5 N         140.1661  139.6458  161.5610 N.2     1  UNL1       -0.0600
      6 C         140.0941  139.4516  163.0466 C.3     1  UNL1        0.2515
      7 H         141.7612  136.7034  162.0110 H       1  UNL1        0.2923
      8 C         139.8691  139.5311  164.5275 C.ar    1  UNL1        0.0297
      9 C         138.6090  138.9790  165.1254 C.ar    1  UNL1        0.0025
     10 C         138.3840  139.0585  166.6063 C.ar    1  UNL1        0.0295
     11 C         139.4190  139.6900  167.4893 C.ar    1  UNL1        0.1401
     12 F         139.1940  139.7695  168.9702 F       1  UNL1       -0.2042
     13 C         140.6792  140.2422  166.8915 C.ar    1  UNL1        0.0295
     14 C         140.9042  140.1627  165.4106 C.ar    1  UNL1        0.0025
     15 C         139.3626  140.7610  163.0240 C.ar    1  UNL1        0.0488
     16 C         140.1188  142.0455  163.1919 C.ar    1  UNL1        0.0057
     17 C         139.3873  143.3549  163.1693 C.ar    1  UNL1        0.0495
     18 C         137.8997  143.3797  162.9788 C.ar    1  UNL1        0.2223
     19 F         137.1683  144.6892  162.9562 F       1  UNL1       -0.1832
     20 N         137.1435  142.0953  162.8110 N.ar    1  UNL1       -0.2166
     21 C         137.8750  140.7858  162.8335 C.ar    1  UNL1        0.1014
     22 C         141.1933  138.2573  159.5209 C.ar    1  UNL1        0.1633
     23 C         140.0746  137.9937  158.5570 C.ar    1  UNL1        0.0370
     24 C         140.3729  137.7779  157.1029 C.ar    1  UNL1        0.0717
     25 C         141.7897  137.8256  156.6127 C.ar    1  UNL1        0.0310
     26 C         142.9083  138.0891  157.5766 C.ar    1  UNL1        0.0998
     27 N         142.6101  138.3050  159.0307 N.ar    1  UNL1       -0.2364
     28 C         139.2542  137.5143  156.1389 C.1     1  UNL1        0.1005
     29 N         138.1356  137.2508  155.1750 N.1     1  UNL1       -0.1908
@<TRIPOS>BOND
     1     2     1    1
     2     2     3    1
     3     3     4    1
     4     4    22    1
     5    22    23   ar
     6    23    24   ar
     7    24    28    1
     8    28    29    3
     9    24    25   ar
    10    25    26   ar
    11    26    27   ar
    12     4     5    2
    13     5     6    1
    14     6     8    1
    15     8     9   ar
    16     9    10   ar
    17    10    11   ar
    18    11    12    1
    19    11    13   ar
    20    13    14   ar
    21     6    15    1
    22    15    16   ar
    23    16    17   ar
    24    17    18   ar
    25    18    19    1
    26    18    20   ar
    27    20    21   ar
    28     6     2    1
    29    14     8   ar
    30    21    15   ar
    31    27    22   ar
    32     3     7    1
@<TRIPOS>MOLECULE
*****
 29 32 0 0 0
SMALL
GASTEIGER

@<TRIPOS>ATOM
      1 C         144.4592  139.7758  162.8882 C.3     1  UNL1        0.0559
      2 C         143.6478  140.3512  164.0109 C.3     1  UNL1        0.2097
      3 N         143.5719  139.8140  165.4094 N.pl3   1  UNL1       -0.2170
      4 C         142.6470  140.6956  166.1950 C.2     1  UNL1        0.3340
      5 N         142.1512  141.7777  165.2822 N.2     1  UNL1       -0.0600
      6 C         142.7697  141.5648  163.9323 C.3     1  UNL1        0.2515
      7 H         144.0460  139.0219  165.7515 H       1  UNL1        0.2923
      8 C         143.2245  141.6075  162.5036 C.ar    1  UNL1        0.0297
      9 C         142.5126  140.7920  161.4652 C.ar    1  UNL1        0.0025
     10 C         142.9674  140.8347  160.0364 C.ar    1  UNL1        0.0295
     11 C         144.1341  141.6928  159.6460 C.ar    1  UNL1        0.1401
     12 F         144.5889  141.7354  158.2173 F       1  UNL1       -0.2042
     13 C         144.8461  142.5083  160.6844 C.ar    1  UNL1        0.0295
     14 C         144.3912  142.4656  162.1132 C.ar    1  UNL1        0.0025
     15 C         141.9867  142.7873  163.5550 C.ar    1  UNL1        0.0488
     16 C         142.5067  144.1494  163.9075 C.ar    1  UNL1        0.0057
     17 C         141.7238  145.3720  163.5302 C.ar    1  UNL1        0.0495
     18 C         140.4208  145.2324  162.8003 C.ar    1  UNL1        0.2223
     19 F         139.6379  146.4550  162.4230 F       1  UNL1       -0.1832
     20 N         139.9008  143.8704  162.4478 N.ar    1  UNL1       -0.2166
     21 C         140.6837  142.6478  162.8251 C.ar    1  UNL1        0.1014
     22 C         142.2819  140.5251  167.6400 C.ar    1  UNL1        0.1633
     23 C         141.3932  141.5290  168.3125 C.ar    1  UNL1        0.0370
     24 C         141.0282  141.3584  169.7574 C.ar    1  UNL1        0.0717
     25 C         141.5520  140.1840  170.5297 C.ar    1  UNL1        0.0310
     26 C         142.4407  139.1801  169.8571 C.ar    1  UNL1        0.0998
     27 N         142.8057  139.3507  168.4123 N.ar    1  UNL1       -0.2364
     28 C         140.1394  142.3623  170.4300 C.1     1  UNL1        0.1005
     29 N         139.2507  143.3661  171.1026 N.1     1  UNL1       -0.1908
@<TRIPOS>BOND
     1     2     1    1
     2     2     3    1
     3     3     4    1
     4     4    22    1
     5    22    23   ar
     6    23    24   ar
     7    24    28    1
     8    28    29    3
     9    24    25   ar
    10    25    26   ar
    11    26    27   ar
    12     4     5    2
    13     5     6    1
    14     6     8    1
    15     8     9   ar
    16     9    10   ar
    17    10    11   ar
    18    11    12    1
    19    11    13   ar
    20    13    14   ar
    21     6    15    1
    22    15    16   ar
    23    16    17   ar
    24    17    18   ar
    25    18    19    1
    26    18    20   ar
    27    20    21   ar
    28     6     2    1
    29    14     8   ar
    30    21    15   ar
    31    27    22   ar
    32     3     7    1
@<TRIPOS>MOLECULE
*****
 29 32 0 0 0
SMALL
GASTEIGER

@<TRIPOS>ATOM
      1 C         142.4588  144.7493  163.4968 C.3     1  UNL1        0.0559
      2 C         141.8495  143.5845  164.2193 C.3     1  UNL1        0.2097
      3 N         142.1635  143.1548  165.6217 N.pl3   1  UNL1       -0.2170
      4 C         141.3273  141.9496  165.9353 C.2     1  UNL1        0.3340
      5 N         140.4966  141.6344  164.7268 N.2     1  UNL1       -0.0600
      6 C         140.8194  142.6449  163.6662 C.3     1  UNL1        0.2515
      7 H         142.8056  143.5877  166.2295 H       1  UNL1        0.2923
      8 C         140.9316  143.4961  162.4362 C.ar    1  UNL1        0.0297
      9 C         141.9075  143.1302  161.3575 C.ar    1  UNL1        0.0025
     10 C         142.0199  143.9814  160.1275 C.ar    1  UNL1        0.0295
     11 C         141.1563  145.1985  159.9763 C.ar    1  UNL1        0.1401
     12 F         141.2686  146.0497  158.7463 F       1  UNL1       -0.2042
     13 C         140.1803  145.5644  161.0551 C.ar    1  UNL1        0.0295
     14 C         140.0680  144.7132  162.2850 C.ar    1  UNL1        0.0025
     15 C         139.8127  141.8832  162.8560 C.ar    1  UNL1        0.0488
     16 C         140.2443  140.6958  162.0474 C.ar    1  UNL1        0.0057
     17 C         139.2376  139.9341  161.2372 C.ar    1  UNL1        0.0495
     18 C         137.7993  140.3599  161.2356 C.ar    1  UNL1        0.2223
     19 F         136.7926  139.5982  160.4253 F       1  UNL1       -0.1832
     20 N         137.3677  141.5472  162.0441 N.ar    1  UNL1       -0.2166
     21 C         138.3744  142.3090  162.8543 C.ar    1  UNL1        0.1014
     22 C         141.3228  141.1924  167.2303 C.ar    1  UNL1        0.1633
     23 C         140.0307  140.9495  167.9525 C.ar    1  UNL1        0.0370
     24 C         140.0262  140.1924  169.2473 C.ar    1  UNL1        0.0717
     25 C         141.3137  139.6782  169.8200 C.ar    1  UNL1        0.0310
     26 C         142.6057  139.9211  169.0978 C.ar    1  UNL1        0.0998
     27 N         142.6103  140.6783  167.8030 N.ar    1  UNL1       -0.2364
     28 C         138.7341  139.9494  169.9696 C.1     1  UNL1        0.1005
     29 N         137.4421  139.7064  170.6917 N.1     1  UNL1       -0.1908
@<TRIPOS>BOND
     1     2     1    1
     2     2     3    1
     3     3     4    1
     4     4    22    1
     5    22    23   ar
     6    23    24   ar
     7    24    28    1
     8    28    29    3
     9    24    25   ar
    10    25    26   ar
    11    26    27   ar
    12     4     5    2
    13     5     6    1
    14     6     8    1
    15     8     9   ar
    16     9    10   ar
    17    10    11   ar
    18    11    12    1
    19    11    13   ar
    20    13    14   ar
    21     6    15    1
    22    15    16   ar
    23    16    17   ar
    24    17    18   ar
    25    18    19    1
    26    18    20   ar
    27    20    21   ar
    28     6     2    1
    29    14     8   ar
    30    21    15   ar
    31    27    22   ar
    32     3     7    1
@<TRIPOS>MOLECULE
*****
 29 32 0 0 0
SMALL
GASTEIGER

@<TRIPOS>ATOM
      1 C         144.7362  141.0071  162.6954 C.3     1  UNL1        0.0559
      2 C         143.7214  140.8341  163.7864 C.3     1  UNL1        0.2097
      3 N         143.9117  141.1875  165.2316 N.pl3   1  UNL1       -0.2170
      4 C         142.6460  140.8492  165.9622 C.2     1  UNL1        0.3340
      5 N         141.6735  140.2866  164.9684 N.2     1  UNL1       -0.0600
      6 C         142.3381  140.2773  163.6237 C.3     1  UNL1        0.2515
      7 H         144.7246  141.5738  165.6307 H       1  UNL1        0.2923
      8 C         142.7306  140.1458  162.1819 C.ar    1  UNL1        0.0297
      9 C         143.3396  138.8686  161.6839 C.ar    1  UNL1        0.0025
     10 C         143.7322  138.7371  160.2421 C.ar    1  UNL1        0.0295
     11 C         143.5158  139.8827  159.2985 C.ar    1  UNL1        0.1401
     12 F         143.9084  139.7513  157.8568 F       1  UNL1       -0.2042
     13 C         142.9068  141.1600  159.7965 C.ar    1  UNL1        0.0295
     14 C         142.5143  141.2915  161.2382 C.ar    1  UNL1        0.0025
     15 C         141.0369  139.6930  163.1595 C.ar    1  UNL1        0.0488
     16 C         140.7854  138.2204  163.2945 C.ar    1  UNL1        0.0057
     17 C         139.4842  137.6361  162.8304 C.ar    1  UNL1        0.0495
     18 C         138.4344  138.5244  162.2312 C.ar    1  UNL1        0.2223
     19 F         137.1332  137.9400  161.7671 F       1  UNL1       -0.1832
     20 N         138.6859  139.9969  162.0962 N.ar    1  UNL1       -0.2166
     21 C         139.9871  140.5813  162.5604 C.ar    1  UNL1        0.1014
     22 C         142.3967  141.0399  167.4290 C.ar    1  UNL1        0.1633
     23 C         141.6684  142.2582  167.9138 C.ar    1  UNL1        0.0370
     24 C         141.4191  142.4489  169.3805 C.ar    1  UNL1        0.0717
     25 C         141.8982  141.4213  170.3625 C.ar    1  UNL1        0.0310
     26 C         142.6266  140.2029  169.8778 C.ar    1  UNL1        0.0998
     27 N         142.8759  140.0122  168.4110 N.ar    1  UNL1       -0.2364
     28 C         140.6907  143.6673  169.8654 C.1     1  UNL1        0.1005
     29 N         139.9624  144.8857  170.3502 N.1     1  UNL1       -0.1908
@<TRIPOS>BOND
     1     2     1    1
     2     2     3    1
     3     3     4    1
     4     4    22    1
     5    22    23   ar
     6    23    24   ar
     7    24    28    1
     8    28    29    3
     9    24    25   ar
    10    25    26   ar
    11    26    27   ar
    12     4     5    2
    13     5     6    1
    14     6     8    1
    15     8     9   ar
    16     9    10   ar
    17    10    11   ar
    18    11    12    1
    19    11    13   ar
    20    13    14   ar
    21     6    15    1
    22    15    16   ar
    23    16    17   ar
    24    17    18   ar
    25    18    19    1
    26    18    20   ar
    27    20    21   ar
    28     6     2    1
    29    14     8   ar
    30    21    15   ar
    31    27    22   ar
    32     3     7    1
@<TRIPOS>MOLECULE
*****
 29 32 0 0 0
SMALL
GASTEIGER

@<TRIPOS>ATOM
      1 C         141.5884  145.4046  163.3477 C.3     1  UNL1        0.0559
      2 C         141.2855  144.8591  161.9837 C.3     1  UNL1        0.2097
      3 N         141.7183  145.4581  160.6784 N.pl3   1  UNL1       -0.2170
      4 C         141.1969  144.5879  159.5734 C.2     1  UNL1        0.3340
      5 N         140.4418  143.4511  160.1958 N.2     1  UNL1       -0.0600
      6 C         140.4966  143.6186  161.6854 C.3     1  UNL1        0.2515
      7 H         142.2510  146.2784  160.5665 H       1  UNL1        0.2923
      8 C         140.3814  143.5226  163.1779 C.ar    1  UNL1        0.0297
      9 C         139.2674  144.2300  163.8911 C.ar    1  UNL1        0.0025
     10 C         139.1522  144.1341  165.3837 C.ar    1  UNL1        0.0295
     11 C         140.1509  143.3308  166.1628 C.ar    1  UNL1        0.1401
     12 F         140.0357  143.2349  167.6553 F       1  UNL1       -0.2042
     13 C         141.2650  142.6234  165.4496 C.ar    1  UNL1        0.0295
     14 C         141.3802  142.7193  163.9571 C.ar    1  UNL1        0.0025
     15 C         139.6836  142.3581  161.6992 C.ar    1  UNL1        0.0488
     16 C         140.3658  141.0247  161.6177 C.ar    1  UNL1        0.0057
     17 C         139.5528  139.7642  161.6315 C.ar    1  UNL1        0.0495
     18 C         138.0576  139.8371  161.7267 C.ar    1  UNL1        0.2223
     19 F         137.2446  138.5765  161.7405 F       1  UNL1       -0.1832
     20 N         137.3754  141.1704  161.8082 N.ar    1  UNL1       -0.2166
     21 C         138.1884  142.4310  161.7944 C.ar    1  UNL1        0.1014
     22 C         141.3957  144.8148  158.1040 C.ar    1  UNL1        0.1633
     23 C         140.6380  145.9038  157.4040 C.ar    1  UNL1        0.0370
     24 C         140.8368  146.1307  155.9347 C.ar    1  UNL1        0.0717
     25 C         141.7933  145.2686  155.1653 C.ar    1  UNL1        0.0310
     26 C         142.5509  144.1796  155.8653 C.ar    1  UNL1        0.0998
     27 N         142.3521  143.9527  157.3346 N.ar    1  UNL1       -0.2364
     28 C         140.0791  147.2197  155.2346 C.1     1  UNL1        0.1005
     29 N         139.3215  148.3087  154.5346 N.1     1  UNL1       -0.1908
@<TRIPOS>BOND
     1     2     1    1
     2     2     3    1
     3     3     4    1
     4     4    22    1
     5    22    23   ar
     6    23    24   ar
     7    24    28    1
     8    28    29    3
     9    24    25   ar
    10    25    26   ar
    11    26    27   ar
    12     4     5    2
    13     5     6    1
    14     6     8    1
    15     8     9   ar
    16     9    10   ar
    17    10    11   ar
    18    11    12    1
    19    11    13   ar
    20    13    14   ar
    21     6    15    1
    22    15    16   ar
    23    16    17   ar
    24    17    18   ar
    25    18    19    1
    26    18    20   ar
    27    20    21   ar
    28     6     2    1
    29    14     8   ar
    30    21    15   ar
    31    27    22   ar
    32     3     7    1
@<TRIPOS>MOLECULE
*****
 29 32 0 0 0
SMALL
GASTEIGER

@<TRIPOS>ATOM
      1 C         142.8643  142.4232  166.3939 C.3     1  UNL1        0.0559
      2 C         141.9134  142.1021  165.2792 C.3     1  UNL1        0.2097
      3 N         141.8158  142.8242  163.9681 N.pl3   1  UNL1       -0.2170
      4 C         140.7352  142.1709  163.1584 C.2     1  UNL1        0.3340
      5 N         140.1651  141.0450  163.9690 N.2     1  UNL1       -0.0600
      6 C         140.8932  141.0024  165.2797 C.3     1  UNL1        0.2515
      7 H         142.3645  143.5922  163.6881 H       1  UNL1        0.2923
      8 C         141.4317  140.7175  166.6505 C.ar    1  UNL1        0.0297
      9 C         141.0048  141.5621  167.8143 C.ar    1  UNL1        0.0025
     10 C         141.5433  141.2773  169.1851 C.ar    1  UNL1        0.0295
     11 C         142.5085  140.1479  169.3920 C.ar    1  UNL1        0.1401
     12 F         143.0469  139.8631  170.7627 F       1  UNL1       -0.2042
     13 C         142.9353  139.3033  168.2281 C.ar    1  UNL1        0.0295
     14 C         142.3969  139.5881  166.8574 C.ar    1  UNL1        0.0025
     15 C         139.9856  139.8432  165.5669 C.ar    1  UNL1        0.0488
     16 C         138.9292  139.9620  166.6252 C.ar    1  UNL1        0.0057
     17 C         138.0216  138.8028  166.9124 C.ar    1  UNL1        0.0495
     18 C         138.1704  137.5248  166.1413 C.ar    1  UNL1        0.2223
     19 F         137.2627  136.3656  166.4285 F       1  UNL1       -0.1832
     20 N         139.2267  137.4060  165.0830 N.ar    1  UNL1       -0.2166
     21 C         140.1344  138.5652  164.7958 C.ar    1  UNL1        0.1014
     22 C         140.3011  142.5730  161.7800 C.ar    1  UNL1        0.1633
     23 C         141.1102  143.5650  160.9983 C.ar    1  UNL1        0.0370
     24 C         140.6761  143.9670  159.6200 C.ar    1  UNL1        0.0717
     25 C         139.4327  143.3770  159.0233 C.ar    1  UNL1        0.0310
     26 C         138.6236  142.3850  159.8050 C.ar    1  UNL1        0.0998
     27 N         139.0577  141.9830  161.1833 N.ar    1  UNL1       -0.2364
     28 C         141.4852  144.9591  158.8382 C.1     1  UNL1        0.1005
     29 N         142.2943  145.9511  158.0565 N.1     1  UNL1       -0.1908
@<TRIPOS>BOND
     1     2     1    1
     2     2     3    1
     3     3     4    1
     4     4    22    1
     5    22    23   ar
     6    23    24   ar
     7    24    28    1
     8    28    29    3
     9    24    25   ar
    10    25    26   ar
    11    26    27   ar
    12     4     5    2
    13     5     6    1
    14     6     8    1
    15     8     9   ar
    16     9    10   ar
    17    10    11   ar
    18    11    12    1
    19    11    13   ar
    20    13    14   ar
    21     6    15    1
    22    15    16   ar
    23    16    17   ar
    24    17    18   ar
    25    18    19    1
    26    18    20   ar
    27    20    21   ar
    28     6     2    1
    29    14     8   ar
    30    21    15   ar
    31    27    22   ar
    32     3     7    1
@<TRIPOS>MOLECULE
*****
 29 32 0 0 0
SMALL
GASTEIGER

@<TRIPOS>ATOM
      1 C         144.3663  141.5650  163.4007 C.3     1  UNL1        0.0559
      2 C         143.2307  141.3295  164.3520 C.3     1  UNL1        0.2097
      3 N         143.1830  141.7527  165.7902 N.pl3   1  UNL1       -0.2170
      4 C         141.8662  141.3142  166.3591 C.2     1  UNL1        0.3340
      5 N         141.0999  140.6199  165.2724 N.2     1  UNL1       -0.0600
      6 C         141.9432  140.6294  164.0319 C.3     1  UNL1        0.2515
      7 H         143.8917  142.2338  166.2756 H       1  UNL1        0.2923
      8 C         142.5436  140.4863  162.6648 C.ar    1  UNL1        0.0297
      9 C         143.3868  139.2897  162.3376 C.ar    1  UNL1        0.0025
     10 C         143.9873  139.1465  160.9704 C.ar    1  UNL1        0.0295
     11 C         143.7445  140.1998  159.9306 C.ar    1  UNL1        0.1401
     12 F         144.3449  140.0567  158.5635 F       1  UNL1       -0.2042
     13 C         142.9012  141.3966  160.2578 C.ar    1  UNL1        0.0295
     14 C         142.3008  141.5397  161.6250 C.ar    1  UNL1        0.0025
     15 C         140.7813  139.8994  163.4261 C.ar    1  UNL1        0.0488
     16 C         140.7272  138.4013  163.4779 C.ar    1  UNL1        0.0057
     17 C         139.5653  137.6713  162.8720 C.ar    1  UNL1        0.0495
     18 C         138.4575  138.4394  162.2144 C.ar    1  UNL1        0.2223
     19 F         137.2955  137.7094  161.6085 F       1  UNL1       -0.1832
     20 N         138.5115  139.9375  162.1625 N.ar    1  UNL1       -0.2166
     21 C         139.6734  140.6676  162.7684 C.ar    1  UNL1        0.1014
     22 C         141.3978  141.5317  167.7675 C.ar    1  UNL1        0.1633
     23 C         140.2081  140.7802  168.2867 C.ar    1  UNL1        0.0370
     24 C         139.7398  140.9977  169.6950 C.ar    1  UNL1        0.0717
     25 C         140.4612  141.9668  170.5840 C.ar    1  UNL1        0.0310
     26 C         141.6510  142.7184  170.0648 C.ar    1  UNL1        0.0998
     27 N         142.1193  142.5008  168.6565 N.ar    1  UNL1       -0.2364
     28 C         138.5500  140.2462  170.2143 C.1     1  UNL1        0.1005
     29 N         137.3603  139.4947  170.7337 N.1     1  UNL1       -0.1908
@<TRIPOS>BOND
     1     2     1    1
     2     2     3    1
     3     3     4    1
     4     4    22    1
     5    22    23   ar
     6    23    24   ar
     7    24    28    1
     8    28    29    3
     9    24    25   ar
    10    25    26   ar
    11    26    27   ar
    12     4     5    2
    13     5     6    1
    14     6     8    1
    15     8     9   ar
    16     9    10   ar
    17    10    11   ar
    18    11    12    1
    19    11    13   ar
    20    13    14   ar
    21     6    15    1
    22    15    16   ar
    23    16    17   ar
    24    17    18   ar
    25    18    19    1
    26    18    20   ar
    27    20    21   ar
    28     6     2    1
    29    14     8   ar
    30    21    15   ar
    31    27    22   ar
    32     3     7    1
@<TRIPOS>MOLECULE
*****
 29 32 0 0 0
SMALL
GASTEIGER

@<TRIPOS>ATOM
      1 C         141.5759  137.5719  164.7097 C.3     1  UNL1        0.0559
      2 C         142.0388  138.3402  163.5075 C.3     1  UNL1        0.2097
      3 N         142.1232  137.8157  162.1047 N.pl3   1  UNL1       -0.2170
      4 C         142.6352  138.9193  161.2272 C.2     1  UNL1        0.3340
      5 N         142.8673  140.1258  162.0876 N.2     1  UNL1       -0.0600
      6 C         142.4988  139.7679  163.4969 C.3     1  UNL1        0.2515
      7 H         141.8844  136.9068  161.8114 H       1  UNL1        0.2923
      8 C         142.2139  139.7058  164.9683 C.ar    1  UNL1        0.0297
      9 C         140.8832  140.1557  165.4942 C.ar    1  UNL1        0.0025
     10 C         140.5982  140.0936  166.9657 C.ar    1  UNL1        0.0295
     11 C         141.6440  139.5815  167.9111 C.ar    1  UNL1        0.1401
     12 F         141.3592  139.5193  169.3824 F       1  UNL1       -0.2042
     13 C         142.9749  139.1315  167.3851 C.ar    1  UNL1        0.0295
     14 C         143.2598  139.1936  165.9138 C.ar    1  UNL1        0.0025
     15 C         142.8992  141.1826  163.7940 C.ar    1  UNL1        0.0488
     16 C         144.2329  141.4695  164.4176 C.ar    1  UNL1        0.0057
     17 C         144.6333  142.8842  164.7147 C.ar    1  UNL1        0.0495
     18 C         143.6999  144.0121  164.3883 C.ar    1  UNL1        0.2223
     19 F         144.1004  145.4268  164.6854 F       1  UNL1       -0.1832
     20 N         142.3662  143.7253  163.7648 N.ar    1  UNL1       -0.2166
     21 C         141.9658  142.3105  163.4676 C.ar    1  UNL1        0.1014
     22 C         142.8733  138.8317  159.7487 C.ar    1  UNL1        0.1633
     23 C         142.5999  137.5496  159.0197 C.ar    1  UNL1        0.0370
     24 C         142.8380  137.4621  157.5414 C.ar    1  UNL1        0.0717
     25 C         143.3495  138.6566  156.7920 C.ar    1  UNL1        0.0310
     26 C         143.6229  139.9386  157.5210 C.ar    1  UNL1        0.0998
     27 N         143.3848  140.0262  158.9994 N.ar    1  UNL1       -0.2364
     28 C         142.5646  136.1800  156.8123 C.1     1  UNL1        0.1005
     29 N         142.2911  134.8979  156.0832 N.1     1  UNL1       -0.1908
@<TRIPOS>BOND
     1     2     1    1
     2     2     3    1
     3     3     4    1
     4     4    22    1
     5    22    23   ar
     6    23    24   ar
     7    24    28    1
     8    28    29    3
     9    24    25   ar
    10    25    26   ar
    11    26    27   ar
    12     4     5    2
    13     5     6    1
    14     6     8    1
    15     8     9   ar
    16     9    10   ar
    17    10    11   ar
    18    11    12    1
    19    11    13   ar
    20    13    14   ar
    21     6    15    1
    22    15    16   ar
    23    16    17   ar
    24    17    18   ar
    25    18    19    1
    26    18    20   ar
    27    20    21   ar
    28     6     2    1
    29    14     8   ar
    30    21    15   ar
    31    27    22   ar
    32     3     7    1
