@<TRIPOS>MOLECULE
*****
 42 45 0 0 0
SMALL
GASTEIGER

@<TRIPOS>ATOM
      1 C         139.2761  144.8597  162.7582 C.3     1  UNL1        0.0370
      2 C         139.8384  146.0736  162.0798 C.3     1  UNL1        0.0204
      3 C         140.0598  145.7365  160.6350 C.3     1  UNL1        0.0722
      4 N         139.6343  144.3142  160.4205 N.3     1  UNL1       -0.2726
      5 C         139.1500  143.7724  161.7326 C.3     1  UNL1        0.0738
      6 C         138.9051  144.7521  164.2076 C.3     1  UNL1        0.0911
      7 C         139.5662  142.5260  165.3727 C.2     1  UNL1        0.2460
      8 O         138.4615  141.8176  164.6462 O.2     1  UNL1       -0.2701
      9 N         139.7880  143.9932  165.1534 N.am    1  UNL1       -0.3008
     10 H         140.5131  144.4582  165.6302 H       1  UNL1        0.1497
     11 C         142.0097  139.7492  166.8111 C.ar    1  UNL1        0.1756
     12 C         141.1268  140.5080  165.8653 C.ar    1  UNL1        0.0448
     13 C         140.4492  141.7672  166.3186 C.ar    1  UNL1        0.0596
     14 C         140.6546  142.2675  167.7177 C.ar    1  UNL1        0.0448
     15 C         141.5375  141.5087  168.6635 C.ar    1  UNL1        0.1756
     16 C         142.2150  140.2495  168.2102 C.ar    1  UNL1        0.2061
     17 C         144.0546  138.5532  165.7445 C.3     1  UNL1        0.2526
     18 O         142.6872  138.4901  166.3579 O.3     1  UNL1       -0.4683
     19 O         141.7429  142.0090  170.0626 O.3     1  UNL1       -0.4683
     20 C         142.7857  143.0505  170.3412 C.3     1  UNL1        0.2526
     21 O         143.0980  139.4907  169.1561 O.3     1  UNL1       -0.4654
     22 C         142.4893  138.6323  170.2250 C.3     1  UNL1        0.2528
     23 C         139.6844  143.5653  159.1218 C.3     1  UNL1        0.0721
     24 C         140.6002  142.3871  158.9703 C.3     1  UNL1        0.0173
     25 C         142.0457  142.5995  158.6307 C.3     1  UNL1        0.0014
     26 C         143.1079  142.2849  159.6420 C.3     1  UNL1        0.0007
     27 C         143.1216  140.9490  160.3243 C.3     1  UNL1        0.0087
     28 C         142.6768  140.8315  161.7521 C.3     1  UNL1        0.0446
     29 C         143.3158  141.6826  162.8091 C.ar    1  UNL1       -0.0183
     30 C         144.6481  141.2958  163.3794 C.ar    1  UNL1       -0.0017
     31 C         145.2872  142.1468  164.4364 C.ar    1  UNL1        0.0293
     32 C         144.5939  143.3847  164.9231 C.ar    1  UNL1        0.1401
     33 F         145.2329  144.2358  165.9802 F       1  UNL1       -0.2042
     34 C         143.2615  143.7715  164.3528 C.ar    1  UNL1        0.0293
     35 C         142.6225  142.9205  163.2958 C.ar    1  UNL1       -0.0017
     36 C         141.5930  139.8629  162.1227 C.ar    1  UNL1       -0.0183
     37 C         141.9480  138.5280  162.7074 C.ar    1  UNL1       -0.0017
     38 C         140.8642  137.5595  163.0780 C.ar    1  UNL1        0.0293
     39 C         139.4255  137.9259  162.8639 C.ar    1  UNL1        0.1401
     40 F         138.3417  136.9573  163.2345 F       1  UNL1       -0.2042
     41 C         139.0705  139.2608  162.2792 C.ar    1  UNL1        0.0293
     42 C         140.1543  140.2294  161.9085 C.ar    1  UNL1       -0.0017
@<TRIPOS>BOND
     1    17    18    1
     2    18    11    1
     3    11    12   ar
     4    12    13   ar
     5    13     7    1
     6     7     8    2
     7     7     9   am
     8     9     6    1
     9     6     1    1
    10     1     2    1
    11     2     3    1
    12     3     4    1
    13     4    23    1
    14    23    24    1
    15    24    25    1
    16    25    26    1
    17    26    27    1
    18    27    28    1
    19    28    29    1
    20    29    30   ar
    21    30    31   ar
    22    31    32   ar
    23    32    33    1
    24    32    34   ar
    25    34    35   ar
    26    28    36    1
    27    36    37   ar
    28    37    38   ar
    29    38    39   ar
    30    39    40    1
    31    39    41   ar
    32    41    42   ar
    33     4     5    1
    34    13    14   ar
    35    14    15   ar
    36    15    19    1
    37    19    20    1
    38    15    16   ar
    39    16    21    1
    40    21    22    1
    41    16    11   ar
    42     5     1    1
    43    35    29   ar
    44    42    36   ar
    45     9    10    1
@<TRIPOS>MOLECULE
*****
 42 45 0 0 0
SMALL
GASTEIGER

@<TRIPOS>ATOM
      1 C         143.1757  144.1003  163.5196 C.3     1  UNL1        0.0370
      2 C         144.0210  144.3871  164.7251 C.3     1  UNL1        0.0204
      3 C         144.4936  143.0770  165.2822 C.3     1  UNL1        0.0722
      4 N         143.9404  141.9805  164.4211 N.3     1  UNL1       -0.2726
      5 C         143.1259  142.6130  163.3317 C.3     1  UNL1        0.0738
      6 C         142.4990  145.1215  162.6541 C.3     1  UNL1        0.0911
      7 C         140.7358  145.3231  160.7566 C.2     1  UNL1        0.2460
      8 O         139.9444  146.2835  161.5941 O.2     1  UNL1       -0.2701
      9 N         142.0131  144.7422  161.2866 N.am    1  UNL1       -0.3008
     10 H         142.5326  144.1118  160.7370 H       1  UNL1        0.1497
     11 C         139.9018  145.5300  156.8821 C.ar    1  UNL1        0.1756
     12 C         140.3877  145.9094  158.2496 C.ar    1  UNL1        0.0448
     13 C         140.2499  144.9437  159.3891 C.ar    1  UNL1        0.0596
     14 C         139.6263  143.5987  159.1612 C.ar    1  UNL1        0.0448
     15 C         139.1404  143.2193  157.7937 C.ar    1  UNL1        0.1756
     16 C         139.2782  144.1850  156.6542 C.ar    1  UNL1        0.2061
     17 C         139.0615  147.6228  155.5922 C.3     1  UNL1        0.2526
     18 O         140.0396  146.4957  155.7426 O.3     1  UNL1       -0.4683
     19 O         138.5168  141.8743  157.5657 O.3     1  UNL1       -0.4683
     20 C         138.9386  140.7009  158.3996 C.3     1  UNL1        0.2526
     21 O         138.7923  143.8056  155.2867 O.3     1  UNL1       -0.4654
     22 C         137.3870  144.1288  154.8737 C.3     1  UNL1        0.2528
     23 C         144.1626  140.5098  164.6151 C.3     1  UNL1        0.0721
     24 C         143.0629  139.5379  164.3055 C.3     1  UNL1        0.0173
     25 C         142.3094  138.8774  165.4217 C.3     1  UNL1        0.0014
     26 C         140.8178  139.0134  165.5032 C.3     1  UNL1        0.0007
     27 C         140.1924  139.7321  166.6618 C.3     1  UNL1        0.0087
     28 C         140.2907  141.2257  166.7594 C.3     1  UNL1        0.0446
     29 C         139.5920  142.0906  165.7526 C.ar    1  UNL1       -0.0183
     30 C         140.0730  143.4893  165.5031 C.ar    1  UNL1       -0.0017
     31 C         139.3744  144.3543  164.4963 C.ar    1  UNL1        0.0293
     32 C         138.1948  143.8205  163.7389 C.ar    1  UNL1        0.1401
     33 F         137.4962  144.6855  162.7320 F       1  UNL1       -0.2042
     34 C         137.7139  142.4218  163.9883 C.ar    1  UNL1        0.0293
     35 C         138.4125  141.5568  164.9952 C.ar    1  UNL1       -0.0017
     36 C         141.0877  141.8543  167.8639 C.ar    1  UNL1       -0.0183
     37 C         140.4029  142.7038  168.8931 C.ar    1  UNL1       -0.0017
     38 C         141.1999  143.3324  169.9975 C.ar    1  UNL1        0.0293
     39 C         142.6816  143.1114  170.0727 C.ar    1  UNL1        0.1401
     40 F         143.4786  143.7399  171.1771 F       1  UNL1       -0.2042
     41 C         143.3664  142.2618  169.0434 C.ar    1  UNL1        0.0293
     42 C         142.5694  141.6332  167.9389 C.ar    1  UNL1       -0.0017
@<TRIPOS>BOND
     1    17    18    1
     2    18    11    1
     3    11    12   ar
     4    12    13   ar
     5    13     7    1
     6     7     8    2
     7     7     9   am
     8     9     6    1
     9     6     1    1
    10     1     2    1
    11     2     3    1
    12     3     4    1
    13     4    23    1
    14    23    24    1
    15    24    25    1
    16    25    26    1
    17    26    27    1
    18    27    28    1
    19    28    29    1
    20    29    30   ar
    21    30    31   ar
    22    31    32   ar
    23    32    33    1
    24    32    34   ar
    25    34    35   ar
    26    28    36    1
    27    36    37   ar
    28    37    38   ar
    29    38    39   ar
    30    39    40    1
    31    39    41   ar
    32    41    42   ar
    33     4     5    1
    34    13    14   ar
    35    14    15   ar
    36    15    19    1
    37    19    20    1
    38    15    16   ar
    39    16    21    1
    40    21    22    1
    41    16    11   ar
    42     5     1    1
    43    35    29   ar
    44    42    36   ar
    45     9    10    1
@<TRIPOS>MOLECULE
*****
 42 45 0 0 0
SMALL
GASTEIGER

@<TRIPOS>ATOM
      1 C         139.1421  144.4397  162.6426 C.3     1  UNL1        0.0370
      2 C         140.0915  145.1656  161.7362 C.3     1  UNL1        0.0204
      3 C         140.0148  144.5301  160.3797 C.3     1  UNL1        0.0722
      4 N         139.0178  143.4114  160.4476 N.3     1  UNL1       -0.2726
      5 C         138.4785  143.3556  161.8462 C.3     1  UNL1        0.0738
      6 C         138.8989  144.7445  164.0910 C.3     1  UNL1        0.0911
      7 C         140.6182  143.3124  165.4113 C.2     1  UNL1        0.2460
      8 O         141.7382  143.9483  164.6425 O.2     1  UNL1       -0.2701
      9 N         139.1985  143.7105  165.1356 N.am    1  UNL1       -0.3008
     10 H         138.4634  143.2931  165.6402 H       1  UNL1        0.1497
     11 C         140.4830  141.2649  168.8083 C.ar    1  UNL1        0.1756
     12 C         140.1835  142.2988  167.7637 C.ar    1  UNL1        0.0448
     13 C         140.9178  142.2784  166.4559 C.ar    1  UNL1        0.0596
     14 C         141.9516  141.2240  166.1927 C.ar    1  UNL1        0.0448
     15 C         142.2511  140.1900  167.2372 C.ar    1  UNL1        0.1756
     16 C         141.5169  140.2105  168.5450 C.ar    1  UNL1        0.2061
     17 C         138.5470  140.4101  170.3153 C.3     1  UNL1        0.2526
     18 O         139.7487  141.2853  170.1161 O.3     1  UNL1       -0.4683
     19 O         143.2850  139.1355  166.9740 O.3     1  UNL1       -0.4683
     20 C         143.2732  138.3806  165.6779 C.3     1  UNL1        0.2526
     21 O         141.8165  139.1764  169.5896 O.3     1  UNL1       -0.4654
     22 C         142.8586  139.4458  170.6343 C.3     1  UNL1        0.2528
     23 C         138.6285  142.5074  159.3158 C.3     1  UNL1        0.0721
     24 C         139.1448  141.0999  159.2686 C.3     1  UNL1        0.0173
     25 C         138.6391  140.0823  160.2477 C.3     1  UNL1        0.0014
     26 C         139.1188  138.6632  160.1697 C.3     1  UNL1        0.0007
     27 C         140.1821  138.1782  161.1100 C.3     1  UNL1        0.0087
     28 C         140.5752  139.0131  162.2926 C.3     1  UNL1        0.0446
     29 C         141.7887  139.8917  162.2202 C.ar    1  UNL1       -0.0183
     30 C         141.6318  141.3788  162.1015 C.ar    1  UNL1       -0.0017
     31 C         142.8453  142.2575  162.0290 C.ar    1  UNL1        0.0293
     32 C         144.2156  141.6492  162.0753 C.ar    1  UNL1        0.1401
     33 F         145.4292  142.5280  162.0029 F       1  UNL1       -0.2042
     34 C         144.3725  140.1622  162.1940 C.ar    1  UNL1        0.0293
     35 C         143.1590  139.2834  162.2664 C.ar    1  UNL1       -0.0017
     36 C         139.7546  138.9693  163.5476 C.ar    1  UNL1       -0.0183
     37 C         139.7108  137.7167  164.3717 C.ar    1  UNL1       -0.0017
     38 C         138.8903  137.6729  165.6266 C.ar    1  UNL1        0.0293
     39 C         138.1136  138.8817  166.0574 C.ar    1  UNL1        0.1401
     40 F         137.2931  138.8379  167.3123 F       1  UNL1       -0.2042
     41 C         138.1575  140.1343  165.2334 C.ar    1  UNL1        0.0293
     42 C         138.9780  140.1781  163.9784 C.ar    1  UNL1       -0.0017
@<TRIPOS>BOND
     1    17    18    1
     2    18    11    1
     3    11    12   ar
     4    12    13   ar
     5    13     7    1
     6     7     8    2
     7     7     9   am
     8     9     6    1
     9     6     1    1
    10     1     2    1
    11     2     3    1
    12     3     4    1
    13     4    23    1
    14    23    24    1
    15    24    25    1
    16    25    26    1
    17    26    27    1
    18    27    28    1
    19    28    29    1
    20    29    30   ar
    21    30    31   ar
    22    31    32   ar
    23    32    33    1
    24    32    34   ar
    25    34    35   ar
    26    28    36    1
    27    36    37   ar
    28    37    38   ar
    29    38    39   ar
    30    39    40    1
    31    39    41   ar
    32    41    42   ar
    33     4     5    1
    34    13    14   ar
    35    14    15   ar
    36    15    19    1
    37    19    20    1
    38    15    16   ar
    39    16    21    1
    40    21    22    1
    41    16    11   ar
    42     5     1    1
    43    35    29   ar
    44    42    36   ar
    45     9    10    1
@<TRIPOS>MOLECULE
*****
 42 45 0 0 0
SMALL
GASTEIGER

@<TRIPOS>ATOM
      1 C         143.4077  138.9099  160.7462 C.3     1  UNL1        0.0370
      2 C         142.9635  138.5127  159.3696 C.3     1  UNL1        0.0204
      3 C         143.0233  139.7291  158.4941 C.3     1  UNL1        0.0722
      4 N         143.5044  140.8783  159.3295 N.3     1  UNL1       -0.2726
      5 C         143.7420  140.3720  160.7213 C.3     1  UNL1        0.0738
      6 C         143.5012  138.0042  161.9382 C.3     1  UNL1        0.0911
      7 C         143.2714  138.8649  164.3787 C.2     1  UNL1        0.2460
      8 O         144.7336  139.1988  164.3987 O.2     1  UNL1       -0.2701
      9 N         142.6552  138.2676  163.1485 N.am    1  UNL1       -0.3008
     10 H         141.6955  138.0485  163.1354 H       1  UNL1        0.1497
     11 C         142.2217  139.5312  168.1476 C.ar    1  UNL1        0.1756
     12 C         143.0677  139.2678  166.9373 C.ar    1  UNL1        0.0448
     13 C         142.4253  139.1283  165.5891 C.ar    1  UNL1        0.0596
     14 C         140.9368  139.2522  165.4511 C.ar    1  UNL1        0.0448
     15 C         140.0908  139.5156  166.6614 C.ar    1  UNL1        0.1756
     16 C         140.7332  139.6551  168.0096 C.ar    1  UNL1        0.2061
     17 C         143.2670  141.0253  169.9981 C.3     1  UNL1        0.2526
     18 O         142.8641  139.6706  169.4959 O.3     1  UNL1       -0.4683
     19 O         138.6022  139.6395  166.5234 O.3     1  UNL1       -0.4683
     20 C         137.7162  138.4874  166.8942 C.3     1  UNL1        0.2526
     21 O         139.8871  139.9185  169.2199 O.3     1  UNL1       -0.4654
     22 C         139.6430  141.3277  169.6721 C.3     1  UNL1        0.2528
     23 C         143.7116  142.2865  158.8562 C.3     1  UNL1        0.0721
     24 C         142.5288  143.1560  158.5486 C.3     1  UNL1        0.0173
     25 C         142.1105  144.2232  159.5161 C.3     1  UNL1        0.0014
     26 C         140.6571  144.4259  159.8269 C.3     1  UNL1        0.0007
     27 C         140.1862  144.4161  161.2511 C.3     1  UNL1        0.0087
     28 C         140.6183  143.3172  162.1763 C.3     1  UNL1        0.0446
     29 C         141.7816  143.5280  163.0993 C.ar    1  UNL1       -0.0183
     30 C         142.3989  144.8890  163.2292 C.ar    1  UNL1       -0.0017
     31 C         143.5623  145.0999  164.1522 C.ar    1  UNL1        0.0293
     32 C         144.1084  143.9499  164.9454 C.ar    1  UNL1        0.1401
     33 F         145.2719  144.1607  165.8684 F       1  UNL1       -0.2042
     34 C         143.4912  142.5889  164.8155 C.ar    1  UNL1        0.0293
     35 C         142.3278  142.3780  163.8924 C.ar    1  UNL1       -0.0017
     36 C         139.8868  142.0075  162.1784 C.ar    1  UNL1       -0.0183
     37 C         138.7673  141.7753  163.1492 C.ar    1  UNL1       -0.0017
     38 C         138.0359  140.4657  163.1512 C.ar    1  UNL1        0.0293
     39 C         138.4242  139.3883  162.1824 C.ar    1  UNL1        0.1401
     40 F         137.6928  138.0787  162.1844 F       1  UNL1       -0.2042
     41 C         139.5437  139.6206  161.2115 C.ar    1  UNL1        0.0293
     42 C         140.2751  140.9303  161.2095 C.ar    1  UNL1       -0.0017
@<TRIPOS>BOND
     1    17    18    1
     2    18    11    1
     3    11    12   ar
     4    12    13   ar
     5    13     7    1
     6     7     8    2
     7     7     9   am
     8     9     6    1
     9     6     1    1
    10     1     2    1
    11     2     3    1
    12     3     4    1
    13     4    23    1
    14    23    24    1
    15    24    25    1
    16    25    26    1
    17    26    27    1
    18    27    28    1
    19    28    29    1
    20    29    30   ar
    21    30    31   ar
    22    31    32   ar
    23    32    33    1
    24    32    34   ar
    25    34    35   ar
    26    28    36    1
    27    36    37   ar
    28    37    38   ar
    29    38    39   ar
    30    39    40    1
    31    39    41   ar
    32    41    42   ar
    33     4     5    1
    34    13    14   ar
    35    14    15   ar
    36    15    19    1
    37    19    20    1
    38    15    16   ar
    39    16    21    1
    40    21    22    1
    41    16    11   ar
    42     5     1    1
    43    35    29   ar
    44    42    36   ar
    45     9    10    1
@<TRIPOS>MOLECULE
*****
 42 45 0 0 0
SMALL
GASTEIGER

@<TRIPOS>ATOM
      1 C         143.6508  139.4079  160.9051 C.3     1  UNL1        0.0370
      2 C         143.3466  139.0088  159.4915 C.3     1  UNL1        0.0204
      3 C         143.3721  140.2466  158.6446 C.3     1  UNL1        0.0722
      4 N         143.6922  141.4107  159.5347 N.3     1  UNL1       -0.2726
      5 C         143.8644  140.8924  160.9317 C.3     1  UNL1        0.0738
      6 C         143.7280  138.4847  162.0848 C.3     1  UNL1        0.0911
      7 C         143.4179  139.0144  164.6093 C.2     1  UNL1        0.2460
      8 O         144.9058  139.1126  164.7715 O.2     1  UNL1       -0.2701
      9 N         142.8290  138.7004  163.2659 N.am    1  UNL1       -0.3008
     10 H         141.8523  138.6359  163.1595 H       1  UNL1        0.1497
     11 C         140.1371  139.5601  166.7747 C.ar    1  UNL1        0.1756
     12 C         141.0362  139.3444  165.5935 C.ar    1  UNL1        0.0448
     13 C         142.5188  139.2300  165.7905 C.ar    1  UNL1        0.0596
     14 C         143.1023  139.3313  167.1686 C.ar    1  UNL1        0.0448
     15 C         142.2032  139.5470  168.3497 C.ar    1  UNL1        0.1756
     16 C         140.7206  139.6614  168.1528 C.ar    1  UNL1        0.2061
     17 C         137.7717  138.4864  166.8208 C.3     1  UNL1        0.2526
     18 O         138.6545  139.6745  166.5777 O.3     1  UNL1       -0.4683
     19 O         142.7868  139.6483  169.7279 O.3     1  UNL1       -0.4683
     20 C         143.2983  140.9656  170.2309 C.3     1  UNL1        0.2526
     21 O         139.8216  139.8770  169.3340 O.3     1  UNL1       -0.4654
     22 C         139.5836  141.2645  169.8519 C.3     1  UNL1        0.2528
     23 C         143.8179  142.8419  159.1035 C.3     1  UNL1        0.0721
     24 C         142.6447  143.5458  158.4889 C.3     1  UNL1        0.0173
     25 C         141.8314  144.5037  159.3080 C.3     1  UNL1        0.0014
     26 C         140.4739  144.1017  159.8038 C.3     1  UNL1        0.0007
     27 C         140.1399  144.2276  161.2608 C.3     1  UNL1        0.0087
     28 C         140.6110  143.1851  162.2310 C.3     1  UNL1        0.0446
     29 C         139.9278  141.8511  162.2888 C.ar    1  UNL1       -0.0183
     30 C         140.3622  140.7456  161.3726 C.ar    1  UNL1       -0.0017
     31 C         139.6790  139.4115  161.4303 C.ar    1  UNL1        0.0293
     32 C         138.5613  139.1828  162.4042 C.ar    1  UNL1        0.1401
     33 F         137.8780  137.8487  162.4619 F       1  UNL1       -0.2042
     34 C         138.1269  140.2883  163.3203 C.ar    1  UNL1        0.0293
     35 C         138.8101  141.6224  163.2626 C.ar    1  UNL1       -0.0017
     36 C         141.7654  143.4768  163.1435 C.ar    1  UNL1       -0.0183
     37 C         142.2220  142.4426  164.1293 C.ar    1  UNL1       -0.0017
     38 C         143.3764  142.7343  165.0417 C.ar    1  UNL1        0.0293
     39 C         144.0740  144.0601  164.9682 C.ar    1  UNL1        0.1401
     40 F         145.2283  144.3518  165.8806 F       1  UNL1       -0.2042
     41 C         143.6174  145.0943  163.9824 C.ar    1  UNL1        0.0293
     42 C         142.4630  144.8026  163.0699 C.ar    1  UNL1       -0.0017
@<TRIPOS>BOND
     1    17    18    1
     2    18    11    1
     3    11    12   ar
     4    12    13   ar
     5    13     7    1
     6     7     8    2
     7     7     9   am
     8     9     6    1
     9     6     1    1
    10     1     2    1
    11     2     3    1
    12     3     4    1
    13     4    23    1
    14    23    24    1
    15    24    25    1
    16    25    26    1
    17    26    27    1
    18    27    28    1
    19    28    29    1
    20    29    30   ar
    21    30    31   ar
    22    31    32   ar
    23    32    33    1
    24    32    34   ar
    25    34    35   ar
    26    28    36    1
    27    36    37   ar
    28    37    38   ar
    29    38    39   ar
    30    39    40    1
    31    39    41   ar
    32    41    42   ar
    33     4     5    1
    34    13    14   ar
    35    14    15   ar
    36    15    19    1
    37    19    20    1
    38    15    16   ar
    39    16    21    1
    40    21    22    1
    41    16    11   ar
    42     5     1    1
    43    35    29   ar
    44    42    36   ar
    45     9    10    1
@<TRIPOS>MOLECULE
*****
 42 45 0 0 0
SMALL
GASTEIGER

@<TRIPOS>ATOM
      1 C         139.1124  144.8040  162.7698 C.3     1  UNL1        0.0370
      2 C         138.7271  144.7923  164.2194 C.3     1  UNL1        0.0204
      3 C         137.9826  143.5187  164.4909 C.3     1  UNL1        0.0722
      4 N         137.9078  142.7433  163.2090 N.3     1  UNL1       -0.2726
      5 C         138.6061  143.5377  162.1454 C.3     1  UNL1        0.0738
      6 C         139.8709  145.8912  162.0679 C.3     1  UNL1        0.0911
      7 C         141.0610  145.3642  159.8194 C.2     1  UNL1        0.2460
      8 O         142.1999  144.7387  160.5687 O.2     1  UNL1       -0.2701
      9 N         139.8965  145.9404  160.5690 N.am    1  UNL1       -0.3008
     10 H         139.1490  146.3509  160.0771 H       1  UNL1        0.1497
     11 C         142.1895  144.7430  156.0656 C.ar    1  UNL1        0.1756
     12 C         142.1640  144.6938  157.5646 C.ar    1  UNL1        0.0448
     13 C         141.0865  145.4134  158.3203 C.ar    1  UNL1        0.0596
     14 C         140.0345  146.1821  157.5772 C.ar    1  UNL1        0.0448
     15 C         140.0601  146.2313  156.0782 C.ar    1  UNL1        0.1756
     16 C         141.1376  145.5118  155.3225 C.ar    1  UNL1        0.2061
     17 C         143.3862  142.5316  155.4116 C.3     1  UNL1        0.2526
     18 O         143.2670  144.0234  155.3099 O.3     1  UNL1       -0.4683
     19 O         139.0081  147.0001  155.3350 O.3     1  UNL1       -0.4683
     20 C         139.2369  148.4414  154.9883 C.3     1  UNL1        0.2526
     21 O         141.1631  145.5610  153.8234 O.3     1  UNL1       -0.4654
     22 C         140.3430  144.5898  153.0271 C.3     1  UNL1        0.2528
     23 C         137.2502  141.4079  163.0234 C.3     1  UNL1        0.0721
     24 C         137.9170  140.1659  163.5357 C.3     1  UNL1        0.0173
     25 C         138.2910  140.0585  164.9844 C.3     1  UNL1        0.0014
     26 C         139.0754  138.8760  165.4708 C.3     1  UNL1        0.0007
     27 C         140.4679  139.0642  165.9957 C.3     1  UNL1        0.0087
     28 C         140.9717  140.4421  166.3084 C.3     1  UNL1        0.0446
     29 C         140.5640  141.1182  167.5837 C.ar    1  UNL1       -0.0183
     30 C         140.8429  142.5789  167.7806 C.ar    1  UNL1       -0.0017
     31 C         140.4352  143.2551  169.0559 C.ar    1  UNL1        0.0293
     32 C         139.7486  142.4706  170.1344 C.ar    1  UNL1        0.1401
     33 F         139.3408  143.1468  171.4098 F       1  UNL1       -0.2042
     34 C         139.4697  141.0099  169.9376 C.ar    1  UNL1        0.0293
     35 C         139.8774  140.3337  168.6622 C.ar    1  UNL1       -0.0017
     36 C         141.8833  141.1438  165.3456 C.ar    1  UNL1       -0.0183
     37 C         143.3700  140.9922  165.4742 C.ar    1  UNL1       -0.0017
     38 C         144.2815  141.6938  164.5115 C.ar    1  UNL1        0.0293
     39 C         143.7062  142.5471  163.4201 C.ar    1  UNL1        0.1401
     40 F         144.6177  143.2487  162.4574 F       1  UNL1       -0.2042
     41 C         142.2194  142.6986  163.2915 C.ar    1  UNL1        0.0293
     42 C         141.3079  141.9970  164.2543 C.ar    1  UNL1       -0.0017
@<TRIPOS>BOND
     1    17    18    1
     2    18    11    1
     3    11    12   ar
     4    12    13   ar
     5    13     7    1
     6     7     8    2
     7     7     9   am
     8     9     6    1
     9     6     1    1
    10     1     2    1
    11     2     3    1
    12     3     4    1
    13     4    23    1
    14    23    24    1
    15    24    25    1
    16    25    26    1
    17    26    27    1
    18    27    28    1
    19    28    29    1
    20    29    30   ar
    21    30    31   ar
    22    31    32   ar
    23    32    33    1
    24    32    34   ar
    25    34    35   ar
    26    28    36    1
    27    36    37   ar
    28    37    38   ar
    29    38    39   ar
    30    39    40    1
    31    39    41   ar
    32    41    42   ar
    33     4     5    1
    34    13    14   ar
    35    14    15   ar
    36    15    19    1
    37    19    20    1
    38    15    16   ar
    39    16    21    1
    40    21    22    1
    41    16    11   ar
    42     5     1    1
    43    35    29   ar
    44    42    36   ar
    45     9    10    1
@<TRIPOS>MOLECULE
*****
 42 45 0 0 0
SMALL
GASTEIGER

@<TRIPOS>ATOM
      1 C         138.7245  139.3652  161.7762 C.3     1  UNL1        0.0370
      2 C         137.6687  140.1849  161.0955 C.3     1  UNL1        0.0204
      3 C         138.2687  140.7749  159.8538 C.3     1  UNL1        0.0722
      4 N         139.6954  140.3200  159.7671 N.3     1  UNL1       -0.2726
      5 C         139.9771  139.4487  160.9552 C.3     1  UNL1        0.0738
      6 C         138.5572  138.5969  163.0536 C.3     1  UNL1        0.0911
      7 C         139.2320  140.0216  165.1188 C.2     1  UNL1        0.2460
      8 O         138.0657  140.9319  164.8719 O.2     1  UNL1       -0.2701
      9 N         139.4778  138.8541  164.2096 N.am    1  UNL1       -0.3008
     10 H         140.2433  138.2567  164.3716 H       1  UNL1        0.1497
     11 C         140.8318  141.7078  168.3355 C.ar    1  UNL1        0.1756
     12 C         139.9112  141.4506  167.1796 C.ar    1  UNL1        0.0448
     13 C         140.1527  140.2788  166.2748 C.ar    1  UNL1        0.0596
     14 C         141.3147  139.3642  166.5260 C.ar    1  UNL1        0.0448
     15 C         142.2353  139.6214  167.6820 C.ar    1  UNL1        0.1756
     16 C         141.9939  140.7932  168.5867 C.ar    1  UNL1        0.2061
     17 C         139.9180  142.6776  170.5659 C.3     1  UNL1        0.2526
     18 O         140.5904  142.8796  169.2403 O.3     1  UNL1       -0.4683
     19 O         143.3974  138.7068  167.9332 O.3     1  UNL1       -0.4683
     20 C         143.8980  137.8120  166.8384 C.3     1  UNL1        0.2526
     21 O         142.9145  141.0504  169.7428 O.3     1  UNL1       -0.4654
     22 C         143.8312  142.2374  169.7218 C.3     1  UNL1        0.2528
     23 C         140.6694  140.6740  158.6827 C.3     1  UNL1        0.0721
     24 C         142.1011  140.9616  159.0251 C.3     1  UNL1        0.0173
     25 C         142.6699  142.3285  158.7845 C.3     1  UNL1        0.0014
     26 C         143.1494  143.1556  159.9404 C.3     1  UNL1        0.0007
     27 C         142.1583  143.7934  160.8683 C.3     1  UNL1        0.0087
     28 C         141.9016  143.1934  162.2190 C.3     1  UNL1        0.0446
     29 C         140.6663  143.5673  162.9832 C.ar    1  UNL1       -0.0183
     30 C         139.3268  143.5281  162.3091 C.ar    1  UNL1       -0.0017
     31 C         138.0914  143.9020  163.0733 C.ar    1  UNL1        0.0293
     32 C         138.1955  144.3152  164.5115 C.ar    1  UNL1        0.1401
     33 F         136.9601  144.6891  165.2758 F       1  UNL1       -0.2042
     34 C         139.5350  144.3544  165.1855 C.ar    1  UNL1        0.0293
     35 C         140.7704  143.9805  164.4214 C.ar    1  UNL1       -0.0017
     36 C         142.8803  142.2195  162.8053 C.ar    1  UNL1       -0.0183
     37 C         142.4977  140.7784  162.9690 C.ar    1  UNL1       -0.0017
     38 C         143.4763  139.8045  163.5553 C.ar    1  UNL1        0.0293
     39 C         144.8376  140.2718  163.9778 C.ar    1  UNL1        0.1401
     40 F         145.8163  139.2979  164.5641 F       1  UNL1       -0.2042
     41 C         145.2203  141.7129  163.8141 C.ar    1  UNL1        0.0293
     42 C         144.2416  142.6868  163.2278 C.ar    1  UNL1       -0.0017
@<TRIPOS>BOND
     1    17    18    1
     2    18    11    1
     3    11    12   ar
     4    12    13   ar
     5    13     7    1
     6     7     8    2
     7     7     9   am
     8     9     6    1
     9     6     1    1
    10     1     2    1
    11     2     3    1
    12     3     4    1
    13     4    23    1
    14    23    24    1
    15    24    25    1
    16    25    26    1
    17    26    27    1
    18    27    28    1
    19    28    29    1
    20    29    30   ar
    21    30    31   ar
    22    31    32   ar
    23    32    33    1
    24    32    34   ar
    25    34    35   ar
    26    28    36    1
    27    36    37   ar
    28    37    38   ar
    29    38    39   ar
    30    39    40    1
    31    39    41   ar
    32    41    42   ar
    33     4     5    1
    34    13    14   ar
    35    14    15   ar
    36    15    19    1
    37    19    20    1
    38    15    16   ar
    39    16    21    1
    40    21    22    1
    41    16    11   ar
    42     5     1    1
    43    35    29   ar
    44    42    36   ar
    45     9    10    1
@<TRIPOS>MOLECULE
*****
 42 45 0 0 0
SMALL
GASTEIGER

@<TRIPOS>ATOM
      1 C         138.7610  139.0612  161.6607 C.3     1  UNL1        0.0370
      2 C         137.6808  139.8634  160.9977 C.3     1  UNL1        0.0204
      3 C         138.2520  140.4674  159.7491 C.3     1  UNL1        0.0722
      4 N         139.6852  140.0385  159.6405 N.3     1  UNL1       -0.2726
      5 C         139.9998  139.1694  160.8219 C.3     1  UNL1        0.0738
      6 C         138.6261  138.2868  162.9383 C.3     1  UNL1        0.0911
      7 C         139.2467  139.7970  164.9592 C.2     1  UNL1        0.2460
      8 O         138.0780  140.6863  164.6535 O.2     1  UNL1       -0.2701
      9 N         139.5207  138.5972  164.1015 N.am    1  UNL1       -0.3008
     10 H         140.2877  138.0136  164.3022 H       1  UNL1        0.1497
     11 C         140.7495  141.6054  168.1562 C.ar    1  UNL1        0.1756
     12 C         139.8549  141.2950  166.9929 C.ar    1  UNL1        0.0448
     13 C         140.1413  140.1074  166.1225 C.ar    1  UNL1        0.0596
     14 C         141.3223  139.2303  166.4154 C.ar    1  UNL1        0.0448
     15 C         142.2169  139.5407  167.5787 C.ar    1  UNL1        0.1756
     16 C         141.9305  140.7283  168.4491 C.ar    1  UNL1        0.2061
     17 C         139.8679  142.5979  170.3895 C.3     1  UNL1        0.2526
     18 O         140.4631  142.7930  169.0266 O.3     1  UNL1       -0.4683
     19 O         143.3980  138.6635  167.8716 O.3     1  UNL1       -0.4683
     20 C         143.9756  137.7979  166.7913 C.3     1  UNL1        0.2526
     21 O         142.8252  141.0387  169.6124 O.3     1  UNL1       -0.4654
     22 C         143.7006  142.2564  169.5813 C.3     1  UNL1        0.2528
     23 C         140.6368  140.4129  158.5431 C.3     1  UNL1        0.0721
     24 C         142.0529  140.7823  158.8719 C.3     1  UNL1        0.0173
     25 C         142.5173  142.1984  158.7022 C.3     1  UNL1        0.0014
     26 C         143.0403  142.9628  159.8821 C.3     1  UNL1        0.0007
     27 C         142.0853  143.6348  160.8236 C.3     1  UNL1        0.0087
     28 C         141.8568  143.0662  162.1927 C.3     1  UNL1        0.0446
     29 C         142.8406  142.0954  162.7753 C.ar    1  UNL1       -0.0183
     30 C         144.1739  142.5803  163.2625 C.ar    1  UNL1       -0.0017
     31 C         145.1579  141.6096  163.8451 C.ar    1  UNL1        0.0293
     32 C         144.8086  140.1540  163.9406 C.ar    1  UNL1        0.1401
     33 F         145.7926  139.1832  164.5233 F       1  UNL1       -0.2042
     34 C         143.4753  139.6691  163.4535 C.ar    1  UNL1        0.0293
     35 C         142.4913  140.6398  162.8708 C.ar    1  UNL1       -0.0017
     36 C         140.6443  143.4683  162.9791 C.ar    1  UNL1       -0.0183
     37 C         140.7922  143.9469  164.3930 C.ar    1  UNL1       -0.0017
     38 C         139.5798  144.3491  165.1793 C.ar    1  UNL1        0.0293
     39 C         138.2195  144.2726  164.5518 C.ar    1  UNL1        0.1401
     40 F         137.0071  144.6748  165.3381 F       1  UNL1       -0.2042
     41 C         138.0716  143.7940  163.1379 C.ar    1  UNL1        0.0293
     42 C         139.2841  143.3919  162.3515 C.ar    1  UNL1       -0.0017
@<TRIPOS>BOND
     1    17    18    1
     2    18    11    1
     3    11    12   ar
     4    12    13   ar
     5    13     7    1
     6     7     8    2
     7     7     9   am
     8     9     6    1
     9     6     1    1
    10     1     2    1
    11     2     3    1
    12     3     4    1
    13     4    23    1
    14    23    24    1
    15    24    25    1
    16    25    26    1
    17    26    27    1
    18    27    28    1
    19    28    29    1
    20    29    30   ar
    21    30    31   ar
    22    31    32   ar
    23    32    33    1
    24    32    34   ar
    25    34    35   ar
    26    28    36    1
    27    36    37   ar
    28    37    38   ar
    29    38    39   ar
    30    39    40    1
    31    39    41   ar
    32    41    42   ar
    33     4     5    1
    34    13    14   ar
    35    14    15   ar
    36    15    19    1
    37    19    20    1
    38    15    16   ar
    39    16    21    1
    40    21    22    1
    41    16    11   ar
    42     5     1    1
    43    35    29   ar
    44    42    36   ar
    45     9    10    1
@<TRIPOS>MOLECULE
*****
 42 45 0 0 0
SMALL
GASTEIGER

@<TRIPOS>ATOM
      1 C         138.7176  143.4163  164.0864 C.3     1  UNL1        0.0370
      2 C         139.5379  143.8696  165.2576 C.3     1  UNL1        0.0204
      3 C         139.8137  142.6743  166.1208 C.3     1  UNL1        0.0722
      4 N         139.1638  141.4822  165.4832 N.3     1  UNL1       -0.2726
      5 C         138.4864  141.9408  164.2259 C.3     1  UNL1        0.0738
      6 C         138.2165  144.2857  162.9716 C.3     1  UNL1        0.0911
      7 C         140.1060  144.9966  161.3362 C.2     1  UNL1        0.2460
      8 O         140.7123  145.8522  162.4087 O.2     1  UNL1       -0.2701
      9 N         138.8580  144.2134  161.6177 N.am    1  UNL1       -0.3008
     10 H         138.4601  143.6518  160.9137 H       1  UNL1        0.1497
     11 C         140.8843  145.7174  157.5120 C.ar    1  UNL1        0.1756
     12 C         140.2428  145.7897  158.8659 C.ar    1  UNL1        0.0448
     13 C         140.7475  144.9243  159.9822 C.ar    1  UNL1        0.0596
     14 C         141.8938  143.9864  159.7446 C.ar    1  UNL1        0.0448
     15 C         142.5353  143.9141  158.3907 C.ar    1  UNL1        0.1756
     16 C         142.0306  144.7796  157.2744 C.ar    1  UNL1        0.2061
     17 C         138.9883  146.3916  155.8686 C.3     1  UNL1        0.2526
     18 O         140.3795  146.5829  156.3957 O.3     1  UNL1       -0.4683
     19 O         143.6816  142.9762  158.1530 O.3     1  UNL1       -0.4683
     20 C         143.8448  141.7581  159.0129 C.3     1  UNL1        0.2526
     21 O         142.6721  144.7072  155.9204 O.3     1  UNL1       -0.4654
     22 C         142.0495  143.8747  154.8390 C.3     1  UNL1        0.2528
     23 C         139.1873  140.0781  166.0103 C.3     1  UNL1        0.0721
     24 C         139.0409  138.9206  165.0677 C.3     1  UNL1        0.0173
     25 C         140.0932  137.8527  165.0222 C.3     1  UNL1        0.0014
     26 C         141.4716  138.1786  164.5282 C.3     1  UNL1        0.0007
     27 C         142.5651  138.4893  165.5069 C.3     1  UNL1        0.0087
     28 C         142.8996  139.9154  165.8299 C.3     1  UNL1        0.0446
     29 C         142.7249  140.4284  167.2285 C.ar    1  UNL1       -0.0183
     30 C         142.2831  139.4979  168.3189 C.ar    1  UNL1       -0.0017
     31 C         142.1084  140.0109  169.7176 C.ar    1  UNL1        0.0293
     32 C         142.3754  141.4544  170.0258 C.ar    1  UNL1        0.1401
     33 F         142.2007  141.9675  171.4245 F       1  UNL1       -0.2042
     34 C         142.8172  142.3849  168.9354 C.ar    1  UNL1        0.0293
     35 C         142.9920  141.8719  167.5367 C.ar    1  UNL1       -0.0017
     36 C         143.4089  140.8284  164.7541 C.ar    1  UNL1       -0.0183
     37 C         144.8610  140.8084  164.3787 C.ar    1  UNL1       -0.0017
     38 C         145.3702  141.7214  163.3030 C.ar    1  UNL1        0.0293
     39 C         144.4273  142.6544  162.6027 C.ar    1  UNL1        0.1401
     40 F         144.9365  143.5673  161.5270 F       1  UNL1       -0.2042
     41 C         142.9752  142.6744  162.9781 C.ar    1  UNL1        0.0293
     42 C         142.4659  141.7614  164.0538 C.ar    1  UNL1       -0.0017
@<TRIPOS>BOND
     1    17    18    1
     2    18    11    1
     3    11    12   ar
     4    12    13   ar
     5    13     7    1
     6     7     8    2
     7     7     9   am
     8     9     6    1
     9     6     1    1
    10     1     2    1
    11     2     3    1
    12     3     4    1
    13     4    23    1
    14    23    24    1
    15    24    25    1
    16    25    26    1
    17    26    27    1
    18    27    28    1
    19    28    29    1
    20    29    30   ar
    21    30    31   ar
    22    31    32   ar
    23    32    33    1
    24    32    34   ar
    25    34    35   ar
    26    28    36    1
    27    36    37   ar
    28    37    38   ar
    29    38    39   ar
    30    39    40    1
    31    39    41   ar
    32    41    42   ar
    33     4     5    1
    34    13    14   ar
    35    14    15   ar
    36    15    19    1
    37    19    20    1
    38    15    16   ar
    39    16    21    1
    40    21    22    1
    41    16    11   ar
    42     5     1    1
    43    35    29   ar
    44    42    36   ar
    45     9    10    1
