@<TRIPOS>MOLECULE
*****
 50 53 0 0 0
SMALL
GASTEIGER

@<TRIPOS>ATOM
      1 C         139.7793  143.8182  159.5761 C.ar    1  UNL1       -0.0212
      2 C         139.9714  143.5216  158.1183 C.ar    1  UNL1       -0.0042
      3 C         139.4749  142.2277  157.5445 C.ar    1  UNL1       -0.0006
      4 C         138.7863  141.2305  158.4284 C.ar    1  UNL1       -0.0038
      5 C         138.5942  141.5271  159.8861 C.ar    1  UNL1       -0.0134
      6 C         139.0907  142.8209  160.4600 C.ar    1  UNL1       -0.0080
      7 C         140.2758  145.1121  160.1500 C.3     1  UNL1        0.0407
      8 C         139.5437  145.8875  161.9837 C.3     1  UNL1        0.0161
      9 C         140.7855  145.1607  161.5599 C.3     1  UNL1        0.0461
     10 C         142.0272  144.4339  161.1360 C.3     1  UNL1        0.0161
     11 N         141.2952  145.2092  162.9698 N.3     1  UNL1       -0.2970
     12 H         141.5142  146.1851  163.1703 H       1  UNL1        0.1233
     13 C         140.4343  144.7184  164.0958 C.3     1  UNL1        0.1027
     14 C         140.4300  143.2626  164.4571 C.3     1  UNL1        0.1484
     15 O         139.2656  142.6777  165.2000 O.3     1  UNL1       -0.3786
     16 H         138.6077  143.3706  165.3673 H       1  UNL1        0.2108
     17 C         141.5901  142.3917  164.0754 C.ar    1  UNL1        0.0071
     18 C         142.8658  142.4545  164.8620 C.ar    1  UNL1        0.0013
     19 C         144.0259  141.5836  164.4804 C.ar    1  UNL1        0.0377
     20 C         143.9104  140.6499  163.3121 C.ar    1  UNL1        0.1481
     21 O         145.0705  139.7791  162.9305 O.3     1  UNL1       -0.5042
     22 C         142.6347  140.5871  162.5255 C.ar    1  UNL1        0.0977
     23 C         141.4746  141.4580  162.9072 C.ar    1  UNL1        0.0170
     24 H         145.8674  139.8183  163.4218 H       1  UNL1        0.2922
     25 N         142.5192  139.6534  161.3572 N.pl3   1  UNL1       -0.2158
     26 H         142.0058  138.8178  161.4438 H       1  UNL1        0.1735
     27 S         143.1857  139.9928  160.0571 S.O2    1  UNL1        0.0559
     28 C         143.8523  140.3322  158.7569 C.3     1  UNL1        0.1996
     29 O         144.2365  138.9565  160.3253 O.2     1  UNL1       -0.1544
     30 O         142.1350  141.0290  159.7889 O.2     1  UNL1       -0.1544
     31 C         137.9056  140.5298  160.7701 C.3     1  UNL1        0.1113
     32 C         138.7017  139.4582  161.4540 C.2     1  UNL1        0.2271
     33 O         139.8039  138.7567  160.7169 O.2     1  UNL1       -0.2747
     34 N         138.3958  139.0881  162.8751 N.am    1  UNL1       -0.3001
     35 H         137.6725  139.5485  163.3589 H       1  UNL1        0.1498
     36 C         139.1920  138.0164  163.5590 C.3     1  UNL1        0.1163
     37 C         140.2227  138.3866  164.5840 C.ar    1  UNL1       -0.0026
     38 C         141.6190  137.8505  164.4711 C.ar    1  UNL1       -0.0026
     39 C         142.6497  138.2207  165.4962 C.ar    1  UNL1       -0.0003
     40 C         142.2840  139.1269  166.6341 C.ar    1  UNL1       -0.0000
     41 C         140.8876  139.6631  166.7471 C.ar    1  UNL1       -0.0003
     42 C         139.8570  139.2929  165.7220 C.ar    1  UNL1       -0.0026
     43 C         140.5220  140.5693  167.8850 C.ar    1  UNL1        0.0002
     44 C         139.5545  140.1046  168.9329 C.ar    1  UNL1        0.0031
     45 C         139.1888  141.0108  170.0708 C.ar    1  UNL1        0.0366
     46 C         139.7906  142.3819  170.1609 C.ar    1  UNL1        0.1337
     47 O         139.4250  143.2882  171.2989 O.3     1  UNL1       -0.5055
     48 C         140.7581  142.8467  169.1131 C.ar    1  UNL1        0.0366
     49 C         141.1238  141.9403  167.9751 C.ar    1  UNL1        0.0031
     50 H         138.8206  142.9978  171.9534 H       1  UNL1        0.2922
@<TRIPOS>BOND
     1     8     9    1
     2     9    10    1
     3     9     7    1
     4     7     1    1
     5     1     2   ar
     6     2     3   ar
     7     3     4   ar
     8     4     5   ar
     9     5    31    1
    10    31    32    1
    11    32    33    2
    12    32    34   am
    13    34    36    1
    14    36    37    1
    15    37    38   ar
    16    38    39   ar
    17    39    40   ar
    18    40    41   ar
    19    41    43    1
    20    43    44   ar
    21    44    45   ar
    22    45    46   ar
    23    46    47    1
    24    46    48   ar
    25    48    49   ar
    26    41    42   ar
    27     5     6   ar
    28     9    11    1
    29    11    13    1
    30    13    14    1
    31    14    15    1
    32    14    17    1
    33    17    18   ar
    34    18    19   ar
    35    19    20   ar
    36    20    21    1
    37    20    22   ar
    38    22    25    1
    39    25    27    1
    40    27    28    1
    41    27    29    2
    42    27    30    2
    43    22    23   ar
    44     6     1   ar
    45    23    17   ar
    46    42    37   ar
    47    49    43   ar
    48    34    35    1
    49    47    50    1
    50    11    12    1
    51    15    16    1
    52    21    24    1
    53    25    26    1
@<TRIPOS>MOLECULE
*****
 50 53 0 0 0
SMALL
GASTEIGER

@<TRIPOS>ATOM
      1 C         143.1363  141.8374  159.6336 C.ar    1  UNL1       -0.0212
      2 C         142.8695  141.4059  158.2221 C.ar    1  UNL1       -0.0042
      3 C         142.7766  139.9463  157.8889 C.ar    1  UNL1       -0.0006
      4 C         142.9503  138.9183  158.9673 C.ar    1  UNL1       -0.0038
      5 C         143.2170  139.3498  160.3789 C.ar    1  UNL1       -0.0134
      6 C         143.3100  140.8094  160.7121 C.ar    1  UNL1       -0.0080
      7 C         143.2293  143.2970  159.9668 C.3     1  UNL1        0.0407
      8 C         144.3040  143.6112  161.7685 C.3     1  UNL1        0.0161
      9 C         142.8750  143.7761  161.3434 C.3     1  UNL1        0.0461
     10 C         141.4460  143.9410  160.9182 C.3     1  UNL1        0.0161
     11 N         142.5207  144.2552  162.7200 N.3     1  UNL1       -0.2970
     12 H         141.5054  144.1973  162.7997 H       1  UNL1        0.1233
     13 C         143.0896  143.5647  163.9240 C.3     1  UNL1        0.1027
     14 C         142.4109  142.3490  164.4818 C.3     1  UNL1        0.1484
     15 O         143.1653  141.4153  165.3813 O.3     1  UNL1       -0.3786
     16 H         144.0713  141.7413  165.4990 H       1  UNL1        0.2108
     17 C         140.9778  142.0669  164.1402 C.ar    1  UNL1        0.0071
     18 C         139.8805  142.8321  164.8186 C.ar    1  UNL1        0.0013
     19 C         138.4474  142.5500  164.4770 C.ar    1  UNL1        0.0377
     20 C         138.1116  141.5027  163.4570 C.ar    1  UNL1        0.1481
     21 O         136.6786  141.2206  163.1154 O.3     1  UNL1       -0.5042
     22 C         139.2090  140.7375  162.7787 C.ar    1  UNL1        0.0977
     23 C         140.6421  141.0196  163.1203 C.ar    1  UNL1        0.0170
     24 H         135.9931  141.6987  163.5392 H       1  UNL1        0.2922
     25 N         138.8733  139.6901  161.7586 N.pl3   1  UNL1       -0.2158
     26 H         138.9157  138.7366  161.9998 H       1  UNL1        0.1735
     27 S         138.4729  140.0956  160.3711 S.O2    1  UNL1        0.0559
     28 C         138.0726  140.5011  158.9836 C.3     1  UNL1        0.1996
     29 O         139.8691  140.5773  160.1090 O.2     1  UNL1       -0.1544
     30 O         137.0768  139.6140  160.6332 O.2     1  UNL1       -0.1544
     31 C         143.3907  138.3218  161.4573 C.3     1  UNL1        0.1113
     32 C         142.2000  137.8365  162.2297 C.2     1  UNL1        0.2271
     33 O         140.9100  137.5521  161.5189 O.2     1  UNL1       -0.2747
     34 N         142.2992  137.6356  163.7129 N.am    1  UNL1       -0.3001
     35 H         143.1458  137.8223  164.1794 H       1  UNL1        0.1498
     36 C         141.1084  137.1503  164.4853 C.3     1  UNL1        0.1163
     37 C         140.3547  138.0952  165.3737 C.ar    1  UNL1       -0.0026
     38 C         138.8555  138.1243  165.3373 C.ar    1  UNL1       -0.0026
     39 C         138.1019  139.0692  166.2256 C.ar    1  UNL1       -0.0003
     40 C         138.8475  139.9851  167.1504 C.ar    1  UNL1       -0.0000
     41 C         140.3468  139.9561  167.1868 C.ar    1  UNL1       -0.0003
     42 C         141.1005  139.0111  166.2984 C.ar    1  UNL1       -0.0026
     43 C         141.0924  140.8719  168.1115 C.ar    1  UNL1        0.0002
     44 C         140.4856  142.1813  168.5206 C.ar    1  UNL1        0.0031
     45 C         141.2313  143.0972  169.4453 C.ar    1  UNL1        0.0366
     46 C         142.5838  142.7037  169.9611 C.ar    1  UNL1        0.1337
     47 O         143.3294  143.6195  170.8858 O.3     1  UNL1       -0.5055
     48 C         143.1906  141.3943  169.5521 C.ar    1  UNL1        0.0366
     49 C         142.4449  140.4784  168.6273 C.ar    1  UNL1        0.0031
     50 H         142.9503  144.4374  171.1413 H       1  UNL1        0.2922
@<TRIPOS>BOND
     1     8     9    1
     2     9    10    1
     3     9     7    1
     4     7     1    1
     5     1     2   ar
     6     2     3   ar
     7     3     4   ar
     8     4     5   ar
     9     5    31    1
    10    31    32    1
    11    32    33    2
    12    32    34   am
    13    34    36    1
    14    36    37    1
    15    37    38   ar
    16    38    39   ar
    17    39    40   ar
    18    40    41   ar
    19    41    43    1
    20    43    44   ar
    21    44    45   ar
    22    45    46   ar
    23    46    47    1
    24    46    48   ar
    25    48    49   ar
    26    41    42   ar
    27     5     6   ar
    28     9    11    1
    29    11    13    1
    30    13    14    1
    31    14    15    1
    32    14    17    1
    33    17    18   ar
    34    18    19   ar
    35    19    20   ar
    36    20    21    1
    37    20    22   ar
    38    22    25    1
    39    25    27    1
    40    27    28    1
    41    27    29    2
    42    27    30    2
    43    22    23   ar
    44     6     1   ar
    45    23    17   ar
    46    42    37   ar
    47    49    43   ar
    48    34    35    1
    49    47    50    1
    50    11    12    1
    51    15    16    1
    52    21    24    1
    53    25    26    1
@<TRIPOS>MOLECULE
*****
 50 53 0 0 0
SMALL
GASTEIGER

@<TRIPOS>ATOM
      1 C         138.6453  138.6565  163.4240 C.ar    1  UNL1       -0.0212
      2 C         138.3601  138.0617  162.0768 C.ar    1  UNL1       -0.0042
      3 C         137.7659  138.9110  160.9926 C.ar    1  UNL1       -0.0006
      4 C         137.4567  140.3550  161.2556 C.ar    1  UNL1       -0.0038
      5 C         137.7418  140.9498  162.6027 C.ar    1  UNL1       -0.0134
      6 C         138.3361  140.1006  163.6869 C.ar    1  UNL1       -0.0080
      7 C         139.2396  137.8073  164.5083 C.3     1  UNL1        0.0407
      8 C         140.4181  138.9317  165.8671 C.3     1  UNL1        0.0161
      9 C         140.7047  137.9007  164.8160 C.3     1  UNL1        0.0461
     10 C         140.9912  136.8697  163.7649 C.3     1  UNL1        0.0161
     11 N         142.1699  137.9941  165.1237 N.3     1  UNL1       -0.2970
     12 H         142.6359  137.2872  164.5549 H       1  UNL1        0.1233
     13 C         142.9028  139.2833  164.8984 C.3     1  UNL1        0.1027
     14 C         143.7164  139.4758  163.6530 C.3     1  UNL1        0.1484
     15 O         145.2118  139.3734  163.7108 O.3     1  UNL1       -0.3786
     16 H         145.4877  139.1799  164.6204 H       1  UNL1        0.2108
     17 C         143.0346  139.7705  162.3498 C.ar    1  UNL1        0.0071
     18 C         141.7547  140.5524  162.3330 C.ar    1  UNL1        0.0013
     19 C         141.0729  140.8471  161.0298 C.ar    1  UNL1        0.0377
     20 C         141.6711  140.3600  159.7434 C.ar    1  UNL1        0.1481
     21 O         140.9893  140.6547  158.4402 O.3     1  UNL1       -0.5042
     22 C         142.9511  139.5781  159.7602 C.ar    1  UNL1        0.0977
     23 C         143.6328  139.2833  161.0634 C.ar    1  UNL1        0.0170
     24 H         140.1898  141.1431  158.4297 H       1  UNL1        0.2922
     25 N         143.5493  139.0909  158.4738 N.pl3   1  UNL1       -0.2158
     26 H         144.4266  139.4277  158.1802 H       1  UNL1        0.1735
     27 S         142.8110  138.0905  157.6348 S.O2    1  UNL1        0.0559
     28 C         142.0727  137.0901  156.7957 C.3     1  UNL1        0.1996
     29 O         142.5975  139.1339  156.5785 O.2     1  UNL1       -0.1544
     30 O         143.0245  137.0471  158.6910 O.2     1  UNL1       -0.1544
     31 C         137.4327  142.3939  162.8657 C.3     1  UNL1        0.1113
     32 C         138.4434  143.2644  163.5517 C.2     1  UNL1        0.2271
     33 O         138.0685  144.0096  164.7984 O.2     1  UNL1       -0.2747
     34 N         139.8290  143.3898  162.9910 N.am    1  UNL1       -0.3001
     35 H         140.0751  142.9008  162.1727 H       1  UNL1        0.1498
     36 C         140.8397  144.2604  163.6770 C.3     1  UNL1        0.1163
     37 C         141.7677  143.6711  164.6976 C.ar    1  UNL1       -0.0026
     38 C         143.2504  143.8448  164.5521 C.ar    1  UNL1       -0.0026
     39 C         144.1784  143.2554  165.5727 C.ar    1  UNL1       -0.0003
     40 C         143.6236  142.4924  166.7388 C.ar    1  UNL1       -0.0000
     41 C         142.1407  142.3186  166.8844 C.ar    1  UNL1       -0.0003
     42 C         141.2128  142.9080  165.8638 C.ar    1  UNL1       -0.0026
     43 C         141.5859  141.5555  168.0505 C.ar    1  UNL1        0.0002
     44 C         140.2648  141.9473  168.6430 C.ar    1  UNL1        0.0031
     45 C         139.7100  141.1842  169.8091 C.ar    1  UNL1        0.0366
     46 C         140.4763  140.0293  170.3828 C.ar    1  UNL1        0.1337
     47 O         139.9215  139.2663  171.5489 O.3     1  UNL1       -0.5055
     48 C         141.7975  139.6376  169.7903 C.ar    1  UNL1        0.0366
     49 C         142.3523  140.4007  168.6241 C.ar    1  UNL1        0.0031
     50 H         139.0963  139.5110  171.9190 H       1  UNL1        0.2922
@<TRIPOS>BOND
     1     8     9    1
     2     9    10    1
     3     9     7    1
     4     7     1    1
     5     1     2   ar
     6     2     3   ar
     7     3     4   ar
     8     4     5   ar
     9     5    31    1
    10    31    32    1
    11    32    33    2
    12    32    34   am
    13    34    36    1
    14    36    37    1
    15    37    38   ar
    16    38    39   ar
    17    39    40   ar
    18    40    41   ar
    19    41    43    1
    20    43    44   ar
    21    44    45   ar
    22    45    46   ar
    23    46    47    1
    24    46    48   ar
    25    48    49   ar
    26    41    42   ar
    27     5     6   ar
    28     9    11    1
    29    11    13    1
    30    13    14    1
    31    14    15    1
    32    14    17    1
    33    17    18   ar
    34    18    19   ar
    35    19    20   ar
    36    20    21    1
    37    20    22   ar
    38    22    25    1
    39    25    27    1
    40    27    28    1
    41    27    29    2
    42    27    30    2
    43    22    23   ar
    44     6     1   ar
    45    23    17   ar
    46    42    37   ar
    47    49    43   ar
    48    34    35    1
    49    47    50    1
    50    11    12    1
    51    15    16    1
    52    21    24    1
    53    25    26    1
@<TRIPOS>MOLECULE
*****
 50 53 0 0 0
SMALL
GASTEIGER

@<TRIPOS>ATOM
      1 C         143.1641  143.2289  162.2942 C.ar    1  UNL1       -0.0212
      2 C         143.0851  143.6291  160.8508 C.ar    1  UNL1       -0.0042
      3 C         143.3748  142.6230  159.7766 C.ar    1  UNL1       -0.0006
      4 C         143.7435  141.2167  160.1459 C.ar    1  UNL1       -0.0038
      5 C         143.8225  140.8165  161.5894 C.ar    1  UNL1       -0.0134
      6 C         143.5328  141.8226  162.6635 C.ar    1  UNL1       -0.0080
      7 C         142.8744  144.2350  163.3684 C.3     1  UNL1        0.0407
      8 C         141.0873  145.3282  163.0352 C.3     1  UNL1        0.0161
      9 C         141.5203  144.2758  164.0124 C.3     1  UNL1        0.0461
     10 C         141.9533  143.2234  164.9895 C.3     1  UNL1        0.0161
     11 N         140.1661  144.3165  164.6564 N.3     1  UNL1       -0.2970
     12 H         139.5404  144.7793  163.9971 H       1  UNL1        0.1233
     13 C         139.4935  143.0411  165.0695 C.3     1  UNL1        0.1027
     14 C         138.5765  142.3339  164.1161 C.3     1  UNL1        0.1484
     15 O         137.1771  141.9931  164.5350 O.3     1  UNL1       -0.3786
     16 H         137.0284  142.2976  165.4439 H       1  UNL1        0.2108
     17 C         139.0589  141.9674  162.7439 C.ar    1  UNL1        0.0071
     18 C         139.8079  140.6856  162.5297 C.ar    1  UNL1        0.0013
     19 C         140.2903  140.3192  161.1575 C.ar    1  UNL1        0.0377
     20 C         140.0237  141.2345  159.9995 C.ar    1  UNL1        0.1481
     21 O         140.5061  140.8681  158.6272 O.3     1  UNL1       -0.5042
     22 C         139.2747  142.5163  160.2137 C.ar    1  UNL1        0.0977
     23 C         138.7923  142.8827  161.5859 C.ar    1  UNL1        0.0170
     24 H         140.9740  140.0674  158.4934 H       1  UNL1        0.2922
     25 N         139.0080  143.4317  159.0556 N.pl3   1  UNL1       -0.2158
     26 H         138.1300  143.4194  158.6104 H       1  UNL1        0.1735
     27 S         140.0790  144.3659  158.5760 S.O2    1  UNL1        0.0559
     28 C         141.1500  145.3001  158.0963 C.3     1  UNL1        0.1996
     29 O         139.8190  145.2656  159.7477 O.2     1  UNL1       -0.1544
     30 O         140.3390  143.4662  157.4043 O.2     1  UNL1       -0.1544
     31 C         144.1913  139.4102  161.9587 C.3     1  UNL1        0.1113
     32 C         143.5760  138.7658  163.1654 C.2     1  UNL1        0.2271
     33 O         144.2981  138.7922  164.4799 O.2     1  UNL1       -0.2747
     34 N         142.2387  138.0951  163.0576 N.am    1  UNL1       -0.3001
     35 H         141.7647  138.0778  162.1948 H       1  UNL1        0.1498
     36 C         141.6234  137.4506  164.2644 C.3     1  UNL1        0.1163
     37 C         140.7674  138.2604  165.1926 C.ar    1  UNL1       -0.0026
     38 C         139.2756  138.1070  165.1627 C.ar    1  UNL1       -0.0026
     39 C         138.4196  138.9167  166.0909 C.ar    1  UNL1       -0.0003
     40 C         139.0554  139.8799  167.0490 C.ar    1  UNL1       -0.0000
     41 C         140.5473  140.0333  167.0790 C.ar    1  UNL1       -0.0003
     42 C         141.4033  139.2236  166.1508 C.ar    1  UNL1       -0.0026
     43 C         141.1831  140.9964  168.0371 C.ar    1  UNL1        0.0002
     44 C         140.3759  142.1193  168.6181 C.ar    1  UNL1        0.0031
     45 C         141.0118  143.0825  169.5763 C.ar    1  UNL1        0.0366
     46 C         142.4548  142.9227  169.9535 C.ar    1  UNL1        0.1337
     47 O         143.0906  143.8858  170.9116 O.3     1  UNL1       -0.5055
     48 C         143.2620  141.7998  169.3724 C.ar    1  UNL1        0.0366
     49 C         142.6261  140.8366  168.4143 C.ar    1  UNL1        0.0031
     50 H         142.5864  144.5873  171.2745 H       1  UNL1        0.2922
@<TRIPOS>BOND
     1     8     9    1
     2     9    10    1
     3     9     7    1
     4     7     1    1
     5     1     2   ar
     6     2     3   ar
     7     3     4   ar
     8     4     5   ar
     9     5    31    1
    10    31    32    1
    11    32    33    2
    12    32    34   am
    13    34    36    1
    14    36    37    1
    15    37    38   ar
    16    38    39   ar
    17    39    40   ar
    18    40    41   ar
    19    41    43    1
    20    43    44   ar
    21    44    45   ar
    22    45    46   ar
    23    46    47    1
    24    46    48   ar
    25    48    49   ar
    26    41    42   ar
    27     5     6   ar
    28     9    11    1
    29    11    13    1
    30    13    14    1
    31    14    15    1
    32    14    17    1
    33    17    18   ar
    34    18    19   ar
    35    19    20   ar
    36    20    21    1
    37    20    22   ar
    38    22    25    1
    39    25    27    1
    40    27    28    1
    41    27    29    2
    42    27    30    2
    43    22    23   ar
    44     6     1   ar
    45    23    17   ar
    46    42    37   ar
    47    49    43   ar
    48    34    35    1
    49    47    50    1
    50    11    12    1
    51    15    16    1
    52    21    24    1
    53    25    26    1
@<TRIPOS>MOLECULE
*****
 50 53 0 0 0
SMALL
GASTEIGER

@<TRIPOS>ATOM
      1 C         139.5314  139.7936  160.0540 C.ar    1  UNL1       -0.0212
      2 C         138.5036  140.4415  159.1744 C.ar    1  UNL1       -0.0042
      3 C         138.6612  141.8770  158.7687 C.ar    1  UNL1       -0.0006
      4 C         139.8465  142.6645  159.2427 C.ar    1  UNL1       -0.0038
      5 C         140.8744  142.0166  160.1223 C.ar    1  UNL1       -0.0134
      6 C         140.7168  140.5812  160.5280 C.ar    1  UNL1       -0.0080
      7 C         139.3739  138.3581  160.4598 C.3     1  UNL1        0.0407
      8 C         140.6872  137.9324  162.0703 C.3     1  UNL1        0.0161
      9 C         139.1979  138.0025  161.9063 C.3     1  UNL1        0.0461
     10 C         137.7085  138.0727  161.7423 C.3     1  UNL1        0.0161
     11 N         139.0218  137.6470  163.3529 N.3     1  UNL1       -0.2970
     12 H         139.4674  136.7397  163.4895 H       1  UNL1        0.1233
     13 C         139.5559  138.5567  164.4192 C.3     1  UNL1        0.1027
     14 C         138.7031  139.6697  164.9519 C.3     1  UNL1        0.1484
     15 O         137.8917  139.4631  166.1964 O.3     1  UNL1       -0.3786
     16 H         138.0316  138.5622  166.5277 H       1  UNL1        0.2108
     17 C         138.6617  140.9894  164.2401 C.ar    1  UNL1        0.0071
     18 C         137.7785  141.1673  163.0408 C.ar    1  UNL1        0.0013
     19 C         137.7371  142.4870  162.3290 C.ar    1  UNL1        0.0377
     20 C         138.5789  143.6288  162.8165 C.ar    1  UNL1        0.1481
     21 O         138.5374  144.9485  162.1047 O.3     1  UNL1       -0.5042
     22 C         139.4620  143.4510  164.0158 C.ar    1  UNL1        0.0977
     23 C         139.5034  142.1312  164.7276 C.ar    1  UNL1        0.0170
     24 H         137.9857  145.0596  161.3555 H       1  UNL1        0.2922
     25 N         140.3038  144.5928  164.5033 N.pl3   1  UNL1       -0.2158
     26 H         139.9825  145.1620  165.2395 H       1  UNL1        0.1735
     27 S         141.6352  144.8673  163.8692 S.O2    1  UNL1        0.0559
     28 C         142.9665  145.1418  163.2351 C.3     1  UNL1        0.1996
     29 O         142.2769  143.8658  164.7830 O.2     1  UNL1       -0.1544
     30 O         140.9934  145.8688  162.9554 O.2     1  UNL1       -0.1544
     31 C         142.0597  142.8042  160.5963 C.3     1  UNL1        0.1113
     32 C         143.1337  142.1327  161.3997 C.2     1  UNL1        0.2271
     33 O         144.5280  142.0355  160.8549 O.2     1  UNL1       -0.2747
     34 N         142.8136  141.5583  162.7479 N.am    1  UNL1       -0.3001
     35 H         141.8985  141.6221  163.1054 H       1  UNL1        0.1498
     36 C         143.8877  140.8867  163.5513 C.3     1  UNL1        0.1163
     37 C         143.5495  140.2361  164.8598 C.ar    1  UNL1       -0.0026
     38 C         144.0240  138.8430  165.1495 C.ar    1  UNL1       -0.0026
     39 C         143.6858  138.1923  166.4581 C.ar    1  UNL1       -0.0003
     40 C         142.8730  138.9347  167.4769 C.ar    1  UNL1       -0.0000
     41 C         142.3984  140.3279  167.1872 C.ar    1  UNL1       -0.0003
     42 C         142.7366  140.9786  165.8787 C.ar    1  UNL1       -0.0026
     43 C         141.5856  141.0704  168.2061 C.ar    1  UNL1        0.0002
     44 C         141.9794  142.4597  168.6121 C.ar    1  UNL1        0.0031
     45 C         141.1666  143.2021  169.6309 C.ar    1  UNL1        0.0366
     46 C         139.9599  142.5553  170.2438 C.ar    1  UNL1        0.1337
     47 O         139.1472  143.2977  171.2627 O.3     1  UNL1       -0.5055
     48 C         139.5661  141.1660  169.8379 C.ar    1  UNL1        0.0366
     49 C         140.3790  140.4235  168.8190 C.ar    1  UNL1        0.0031
     50 H         139.3932  144.1656  171.5163 H       1  UNL1        0.2922
@<TRIPOS>BOND
     1     8     9    1
     2     9    10    1
     3     9     7    1
     4     7     1    1
     5     1     2   ar
     6     2     3   ar
     7     3     4   ar
     8     4     5   ar
     9     5    31    1
    10    31    32    1
    11    32    33    2
    12    32    34   am
    13    34    36    1
    14    36    37    1
    15    37    38   ar
    16    38    39   ar
    17    39    40   ar
    18    40    41   ar
    19    41    43    1
    20    43    44   ar
    21    44    45   ar
    22    45    46   ar
    23    46    47    1
    24    46    48   ar
    25    48    49   ar
    26    41    42   ar
    27     5     6   ar
    28     9    11    1
    29    11    13    1
    30    13    14    1
    31    14    15    1
    32    14    17    1
    33    17    18   ar
    34    18    19   ar
    35    19    20   ar
    36    20    21    1
    37    20    22   ar
    38    22    25    1
    39    25    27    1
    40    27    28    1
    41    27    29    2
    42    27    30    2
    43    22    23   ar
    44     6     1   ar
    45    23    17   ar
    46    42    37   ar
    47    49    43   ar
    48    34    35    1
    49    47    50    1
    50    11    12    1
    51    15    16    1
    52    21    24    1
    53    25    26    1
@<TRIPOS>MOLECULE
*****
 50 53 0 0 0
SMALL
GASTEIGER

@<TRIPOS>ATOM
      1 C         144.3119  142.4158  161.4340 C.ar    1  UNL1       -0.0212
      2 C         144.0410  143.6516  162.2398 C.ar    1  UNL1       -0.0042
      3 C         144.0502  143.5867  163.7383 C.ar    1  UNL1       -0.0006
      4 C         144.3304  142.2861  164.4311 C.ar    1  UNL1       -0.0038
      5 C         144.6013  141.0503  163.6253 C.ar    1  UNL1       -0.0134
      6 C         144.5921  141.1151  162.1267 C.ar    1  UNL1       -0.0080
      7 C         144.3027  142.4805  159.9354 C.3     1  UNL1        0.0407
      8 C         142.3045  142.9399  159.3912 C.3     1  UNL1        0.0161
      9 C         143.2264  141.7792  159.1610 C.3     1  UNL1        0.0461
     10 C         144.1483  140.6186  158.9307 C.3     1  UNL1        0.0161
     11 N         142.1501  141.0779  158.3865 N.3     1  UNL1       -0.2970
     12 H         142.5797  140.2546  157.9647 H       1  UNL1        0.1233
     13 C         140.9083  140.6085  159.0848 C.3     1  UNL1        0.1027
     14 C         140.9920  140.0681  160.4815 C.3     1  UNL1        0.1484
     15 O         141.9720  138.9803  160.8073 O.3     1  UNL1       -0.3786
     16 H         142.4693  138.7434  160.0089 H       1  UNL1        0.2108
     17 C         140.0957  140.6155  161.5525 C.ar    1  UNL1        0.0071
     18 C         138.9786  139.7757  162.0973 C.ar    1  UNL1        0.0013
     19 C         138.0823  140.3231  163.1682 C.ar    1  UNL1        0.0377
     20 C         138.3031  141.7103  163.6945 C.ar    1  UNL1        0.1481
     21 O         137.4068  142.2577  164.7654 O.3     1  UNL1       -0.5042
     22 C         139.4202  142.5501  163.1497 C.ar    1  UNL1        0.0977
     23 C         140.3165  142.0027  162.0788 C.ar    1  UNL1        0.0170
     24 H         136.7089  141.7331  165.1057 H       1  UNL1        0.2922
     25 N         139.6410  143.9373  163.6760 N.pl3   1  UNL1       -0.2158
     26 H         139.7749  144.0824  164.6405 H       1  UNL1        0.1735
     27 S         139.6580  145.1034  162.7327 S.O2    1  UNL1        0.0559
     28 C         139.6749  146.2695  161.7894 C.3     1  UNL1        0.1996
     29 O         138.2155  144.8576  162.4029 O.2     1  UNL1       -0.1544
     30 O         141.1004  145.3493  163.0625 O.2     1  UNL1       -0.1544
     31 C         144.8814  139.7497  164.3180 C.3     1  UNL1        0.1113
     32 C         143.7536  138.8173  164.6475 C.2     1  UNL1        0.2271
     33 O         143.7368  138.0958  165.9626 O.2     1  UNL1       -0.2747
     34 N         142.6426  138.6064  163.6621 N.am    1  UNL1       -0.3001
     35 H         142.6536  139.0799  162.7990 H       1  UNL1        0.1498
     36 C         141.5147  137.6739  163.9917 C.3     1  UNL1        0.1163
     37 C         140.4508  138.0969  164.9608 C.ar    1  UNL1       -0.0026
     38 C         139.1564  137.3422  165.0299 C.ar    1  UNL1       -0.0026
     39 C         138.0925  137.7651  165.9991 C.ar    1  UNL1       -0.0003
     40 C         138.3230  138.9427  166.8991 C.ar    1  UNL1       -0.0000
     41 C         139.6175  139.6975  166.8300 C.ar    1  UNL1       -0.0003
     42 C         140.6814  139.2745  165.8609 C.ar    1  UNL1       -0.0026
     43 C         139.8481  140.8750  167.7300 C.ar    1  UNL1        0.0002
     44 C         139.5823  140.7577  169.2016 C.ar    1  UNL1        0.0031
     45 C         139.8128  141.9353  170.1016 C.ar    1  UNL1        0.0366
     46 C         140.3092  143.2303  169.5301 C.ar    1  UNL1        0.1337
     47 O         140.5397  144.4079  170.4301 O.3     1  UNL1       -0.5055
     48 C         140.5750  143.3477  168.0585 C.ar    1  UNL1        0.0366
     49 C         140.3444  142.1700  167.1584 C.ar    1  UNL1        0.0031
     50 H         140.3737  144.3346  171.3493 H       1  UNL1        0.2922
@<TRIPOS>BOND
     1     8     9    1
     2     9    10    1
     3     9     7    1
     4     7     1    1
     5     1     2   ar
     6     2     3   ar
     7     3     4   ar
     8     4     5   ar
     9     5    31    1
    10    31    32    1
    11    32    33    2
    12    32    34   am
    13    34    36    1
    14    36    37    1
    15    37    38   ar
    16    38    39   ar
    17    39    40   ar
    18    40    41   ar
    19    41    43    1
    20    43    44   ar
    21    44    45   ar
    22    45    46   ar
    23    46    47    1
    24    46    48   ar
    25    48    49   ar
    26    41    42   ar
    27     5     6   ar
    28     9    11    1
    29    11    13    1
    30    13    14    1
    31    14    15    1
    32    14    17    1
    33    17    18   ar
    34    18    19   ar
    35    19    20   ar
    36    20    21    1
    37    20    22   ar
    38    22    25    1
    39    25    27    1
    40    27    28    1
    41    27    29    2
    42    27    30    2
    43    22    23   ar
    44     6     1   ar
    45    23    17   ar
    46    42    37   ar
    47    49    43   ar
    48    34    35    1
    49    47    50    1
    50    11    12    1
    51    15    16    1
    52    21    24    1
    53    25    26    1
@<TRIPOS>MOLECULE
*****
 50 53 0 0 0
SMALL
GASTEIGER

@<TRIPOS>ATOM
      1 C         139.2484  143.9526  164.0547 C.ar    1  UNL1       -0.0212
      2 C         138.5515  144.7733  163.0104 C.ar    1  UNL1       -0.0042
      3 C         139.3445  145.6807  162.1172 C.ar    1  UNL1       -0.0006
      4 C         140.8343  145.7674  162.2684 C.ar    1  UNL1       -0.0038
      5 C         141.5312  144.9467  163.3128 C.ar    1  UNL1       -0.0134
      6 C         140.7382  144.0393  164.2059 C.ar    1  UNL1       -0.0080
      7 C         138.4554  143.0452  164.9480 C.3     1  UNL1        0.0407
      8 C         137.2849  142.1206  163.4397 C.3     1  UNL1        0.0161
      9 C         138.1882  141.6291  164.5317 C.3     1  UNL1        0.0461
     10 C         139.0915  141.1377  165.6237 C.3     1  UNL1        0.0161
     11 N         137.9210  140.2130  164.1155 N.3     1  UNL1       -0.2970
     12 H         136.9426  140.0222  164.3314 H       1  UNL1        0.1233
     13 C         138.1394  139.7960  162.6912 C.3     1  UNL1        0.1027
     14 C         138.8881  138.5327  162.3859 C.3     1  UNL1        0.1484
     15 O         138.1994  137.2054  162.5045 O.3     1  UNL1       -0.3786
     16 H         137.2814  137.3416  162.7867 H       1  UNL1        0.2108
     17 C         140.3256  138.5966  161.9621 C.ar    1  UNL1        0.0071
     18 C         141.3728  137.8665  162.7497 C.ar    1  UNL1        0.0013
     19 C         142.8103  137.9304  162.3259 C.ar    1  UNL1        0.0377
     20 C         143.2005  138.7243  161.1145 C.ar    1  UNL1        0.1481
     21 O         144.6380  138.7882  160.6907 O.3     1  UNL1       -0.5042
     22 C         142.1533  139.4544  160.3270 C.ar    1  UNL1        0.0977
     23 C         140.7158  139.3905  160.7508 C.ar    1  UNL1        0.0170
     24 H         145.2922  138.3321  161.1827 H       1  UNL1        0.2922
     25 N         142.5435  140.2483  159.1156 N.pl3   1  UNL1       -0.2158
     26 H         142.5678  141.2316  159.1583 H       1  UNL1        0.1735
     27 S         142.8966  139.5442  157.8391 S.O2    1  UNL1        0.0559
     28 C         143.2498  138.8400  156.5627 C.3     1  UNL1        0.1996
     29 O         144.3409  139.8918  158.0470 O.2     1  UNL1       -0.1544
     30 O         141.4524  139.1966  157.6313 O.2     1  UNL1       -0.1544
     31 C         143.0210  145.0334  163.4640 C.3     1  UNL1        0.1113
     32 C         143.7804  143.8935  164.0754 C.2     1  UNL1        0.2271
     33 O         144.6376  144.1260  165.2843 O.2     1  UNL1       -0.2747
     34 N         143.6827  142.5210  163.4780 N.am    1  UNL1       -0.3001
     35 H         143.1201  142.3684  162.6847 H       1  UNL1        0.1498
     36 C         144.4421  141.3811  164.0896 C.3     1  UNL1        0.1163
     37 C         143.8406  140.5997  165.2199 C.ar    1  UNL1       -0.0026
     38 C         144.0955  139.1259  165.3320 C.ar    1  UNL1       -0.0026
     39 C         143.4940  138.3445  166.4623 C.ar    1  UNL1       -0.0003
     40 C         142.6374  139.0370  167.4805 C.ar    1  UNL1       -0.0000
     41 C         142.3823  140.5110  167.3683 C.ar    1  UNL1       -0.0003
     42 C         142.9839  141.2923  166.2380 C.ar    1  UNL1       -0.0026
     43 C         141.5257  141.2035  168.3864 C.ar    1  UNL1        0.0002
     44 C         140.3733  140.4780  169.0153 C.ar    1  UNL1        0.0031
     45 C         139.5167  141.1705  170.0334 C.ar    1  UNL1        0.0366
     46 C         139.8126  142.5886  170.4227 C.ar    1  UNL1        0.1337
     47 O         138.9560  143.2812  171.4409 O.3     1  UNL1       -0.5055
     48 C         140.9650  143.3142  169.7939 C.ar    1  UNL1        0.0366
     49 C         141.8216  142.6216  168.7757 C.ar    1  UNL1        0.0031
     50 H         138.2361  142.8279  171.8337 H       1  UNL1        0.2922
@<TRIPOS>BOND
     1     8     9    1
     2     9    10    1
     3     9     7    1
     4     7     1    1
     5     1     2   ar
     6     2     3   ar
     7     3     4   ar
     8     4     5   ar
     9     5    31    1
    10    31    32    1
    11    32    33    2
    12    32    34   am
    13    34    36    1
    14    36    37    1
    15    37    38   ar
    16    38    39   ar
    17    39    40   ar
    18    40    41   ar
    19    41    43    1
    20    43    44   ar
    21    44    45   ar
    22    45    46   ar
    23    46    47    1
    24    46    48   ar
    25    48    49   ar
    26    41    42   ar
    27     5     6   ar
    28     9    11    1
    29    11    13    1
    30    13    14    1
    31    14    15    1
    32    14    17    1
    33    17    18   ar
    34    18    19   ar
    35    19    20   ar
    36    20    21    1
    37    20    22   ar
    38    22    25    1
    39    25    27    1
    40    27    28    1
    41    27    29    2
    42    27    30    2
    43    22    23   ar
    44     6     1   ar
    45    23    17   ar
    46    42    37   ar
    47    49    43   ar
    48    34    35    1
    49    47    50    1
    50    11    12    1
    51    15    16    1
    52    21    24    1
    53    25    26    1
@<TRIPOS>MOLECULE
*****
 50 53 0 0 0
SMALL
GASTEIGER

@<TRIPOS>ATOM
      1 C         140.1936  141.1620  158.2679 C.ar    1  UNL1       -0.0212
      2 C         139.3843  139.9725  157.8436 C.ar    1  UNL1       -0.0042
      3 C         139.9396  138.5892  158.0113 C.ar    1  UNL1       -0.0006
      4 C         141.3041  138.3954  158.6033 C.ar    1  UNL1       -0.0038
      5 C         142.1134  139.5849  159.0276 C.ar    1  UNL1       -0.0134
      6 C         141.5582  140.9682  158.8599 C.ar    1  UNL1       -0.0080
      7 C         139.6384  142.5454  158.1002 C.3     1  UNL1        0.0407
      8 C         140.6651  144.3612  158.4857 C.3     1  UNL1        0.0161
      9 C         139.6846  143.5157  159.2431 C.3     1  UNL1        0.0461
     10 C         138.7041  142.6702  160.0006 C.3     1  UNL1        0.0161
     11 N         139.7307  144.4860  160.3861 N.3     1  UNL1       -0.2970
     12 H         139.2814  144.0284  161.1793 H       1  UNL1        0.1233
     13 C         141.0499  145.0054  160.8763 C.3     1  UNL1        0.1027
     14 C         141.8933  144.1667  161.7902 C.3     1  UNL1        0.1484
     15 O         143.3871  144.2999  161.7647 O.3     1  UNL1       -0.3786
     16 H         143.6412  144.9659  161.1068 H       1  UNL1        0.2108
     17 C         141.2429  143.1949  162.7296 C.ar    1  UNL1        0.0071
     18 C         140.5761  143.6907  163.9784 C.ar    1  UNL1        0.0013
     19 C         139.9256  142.7188  164.9178 C.ar    1  UNL1        0.0377
     20 C         139.9421  141.2512  164.6084 C.ar    1  UNL1        0.1481
     21 O         139.2916  140.2794  165.5478 O.3     1  UNL1       -0.5042
     22 C         140.6089  140.7554  163.3596 C.ar    1  UNL1        0.0977
     23 C         141.2593  141.7273  162.4202 C.ar    1  UNL1        0.0170
     24 H         138.8751  140.5891  166.3279 H       1  UNL1        0.2922
     25 N         140.6253  139.2877  163.0502 N.pl3   1  UNL1       -0.2158
     26 H         141.4560  138.7708  163.1598 H       1  UNL1        0.1735
     27 S         139.3761  138.6077  162.5738 S.O2    1  UNL1        0.0559
     28 C         138.1270  137.9276  162.0974 C.3     1  UNL1        0.1996
     29 O         139.3834  139.4592  161.3390 O.2     1  UNL1       -0.1544
     30 O         139.3688  137.7561  163.8086 O.2     1  UNL1       -0.1544
     31 C         143.4780  139.3911  159.6195 C.3     1  UNL1        0.1113
     32 C         143.6254  139.0900  161.0815 C.2     1  UNL1        0.2271
     33 O         142.9200  137.9085  161.6788 O.2     1  UNL1       -0.2747
     34 N         144.4783  139.9702  161.9463 N.am    1  UNL1       -0.3001
     35 H         144.9413  140.7455  161.5544 H       1  UNL1        0.1498
     36 C         144.6257  139.6689  163.4084 C.3     1  UNL1        0.1163
     37 C         144.1928  140.6788  164.4296 C.ar    1  UNL1       -0.0026
     38 C         144.5477  142.1252  164.2512 C.ar    1  UNL1       -0.0026
     39 C         144.1149  143.1351  165.2724 C.ar    1  UNL1       -0.0003
     40 C         143.3271  142.6986  166.4719 C.ar    1  UNL1       -0.0000
     41 C         142.9722  141.2521  166.6503 C.ar    1  UNL1       -0.0003
     42 C         143.4050  140.2422  165.6291 C.ar    1  UNL1       -0.0026
     43 C         142.1845  140.8156  167.8498 C.ar    1  UNL1        0.0002
     44 C         140.9409  141.5575  168.2410 C.ar    1  UNL1        0.0031
     45 C         140.1532  141.1210  169.4405 C.ar    1  UNL1        0.0366
     46 C         140.6090  139.9424  170.2489 C.ar    1  UNL1        0.1337
     47 O         139.8212  139.5059  171.4484 O.3     1  UNL1       -0.5055
     48 C         141.8525  139.2004  169.8576 C.ar    1  UNL1        0.0366
     49 C         142.6402  139.6370  168.6580 C.ar    1  UNL1        0.0031
     50 H         139.0444  139.9694  171.6928 H       1  UNL1        0.2922
@<TRIPOS>BOND
     1     8     9    1
     2     9    10    1
     3     9     7    1
     4     7     1    1
     5     1     2   ar
     6     2     3   ar
     7     3     4   ar
     8     4     5   ar
     9     5    31    1
    10    31    32    1
    11    32    33    2
    12    32    34   am
    13    34    36    1
    14    36    37    1
    15    37    38   ar
    16    38    39   ar
    17    39    40   ar
    18    40    41   ar
    19    41    43    1
    20    43    44   ar
    21    44    45   ar
    22    45    46   ar
    23    46    47    1
    24    46    48   ar
    25    48    49   ar
    26    41    42   ar
    27     5     6   ar
    28     9    11    1
    29    11    13    1
    30    13    14    1
    31    14    15    1
    32    14    17    1
    33    17    18   ar
    34    18    19   ar
    35    19    20   ar
    36    20    21    1
    37    20    22   ar
    38    22    25    1
    39    25    27    1
    40    27    28    1
    41    27    29    2
    42    27    30    2
    43    22    23   ar
    44     6     1   ar
    45    23    17   ar
    46    42    37   ar
    47    49    43   ar
    48    34    35    1
    49    47    50    1
    50    11    12    1
    51    15    16    1
    52    21    24    1
    53    25    26    1
@<TRIPOS>MOLECULE
*****
 50 53 0 0 0
SMALL
GASTEIGER

@<TRIPOS>ATOM
      1 C         139.5952  142.8175  158.5653 C.ar    1  UNL1       -0.0212
      2 C         139.7436  143.8139  157.4540 C.ar    1  UNL1       -0.0042
      3 C         140.4524  145.1126  157.7009 C.ar    1  UNL1       -0.0006
      4 C         141.0127  145.4149  159.0590 C.ar    1  UNL1       -0.0038
      5 C         140.8643  144.4185  160.1703 C.ar    1  UNL1       -0.0134
      6 C         140.1555  143.1198  159.9235 C.ar    1  UNL1       -0.0080
      7 C         138.8864  141.5187  158.3185 C.3     1  UNL1        0.0407
      8 C         138.0332  140.4128  159.9150 C.3     1  UNL1        0.0161
      9 C         139.2786  140.2922  159.0878 C.3     1  UNL1        0.0461
     10 C         140.5240  140.1717  158.2605 C.3     1  UNL1        0.0161
     11 N         139.6709  139.0657  159.8570 N.3     1  UNL1       -0.2970
     12 H         139.6971  138.2951  159.1893 H       1  UNL1        0.1233
     13 C         140.9701  139.0338  160.6061 C.3     1  UNL1        0.1027
     14 C         141.0994  138.2034  161.8485 C.3     1  UNL1        0.1484
     15 O         142.1225  137.1086  161.9157 O.3     1  UNL1       -0.3786
     16 H         142.6121  137.0718  161.0792 H       1  UNL1        0.2108
     17 C         140.2055  138.4678  163.0237 C.ar    1  UNL1        0.0071
     18 C         139.8019  137.3408  163.9275 C.ar    1  UNL1        0.0013
     19 C         138.9080  137.6053  165.1027 C.ar    1  UNL1        0.0377
     20 C         138.4179  138.9967  165.3741 C.ar    1  UNL1        0.1481
     21 O         137.5240  139.2611  166.5494 O.3     1  UNL1       -0.5042
     22 C         138.8216  140.1236  164.4703 C.ar    1  UNL1        0.0977
     23 C         139.7154  139.8592  163.2951 C.ar    1  UNL1        0.0170
     24 H         137.2719  138.5571  167.1139 H       1  UNL1        0.2922
     25 N         138.3314  141.5151  164.7417 N.pl3   1  UNL1       -0.2158
     26 H         138.1579  141.8043  165.6667 H       1  UNL1        0.1735
     27 S         138.1056  142.4660  163.6039 S.O2    1  UNL1        0.0559
     28 C         137.8798  143.4169  162.4660 C.3     1  UNL1        0.1996
     29 O         139.3222  143.2429  164.0117 O.2     1  UNL1       -0.1544
     30 O         136.8890  141.6892  163.1961 O.2     1  UNL1       -0.1544
     31 C         141.4247  144.7207  161.5285 C.3     1  UNL1        0.1113
     32 C         142.4862  143.8383  162.1152 C.2     1  UNL1        0.2271
     33 O         143.9148  144.2952  162.1352 O.2     1  UNL1       -0.2747
     34 N         142.1192  142.4988  162.6820 N.am    1  UNL1       -0.3001
     35 H         141.1816  142.1989  162.6689 H       1  UNL1        0.1498
     36 C         143.1809  141.6163  163.2688 C.3     1  UNL1        0.1163
     37 C         142.8940  140.8196  164.5069 C.ar    1  UNL1       -0.0026
     38 C         143.3403  139.3905  164.5993 C.ar    1  UNL1       -0.0026
     39 C         143.0534  138.5938  165.8374 C.ar    1  UNL1       -0.0003
     40 C         142.3202  139.2261  166.9831 C.ar    1  UNL1       -0.0000
     41 C         141.8739  140.6552  166.8907 C.ar    1  UNL1       -0.0003
     42 C         142.1608  141.4520  165.6526 C.ar    1  UNL1       -0.0026
     43 C         141.1407  141.2876  168.0364 C.ar    1  UNL1        0.0002
     44 C         140.1213  140.4973  168.8021 C.ar    1  UNL1        0.0031
     45 C         139.3882  141.1297  169.9478 C.ar    1  UNL1        0.0366
     46 C         139.6744  142.5523  170.3277 C.ar    1  UNL1        0.1337
     47 O         138.9412  143.1846  171.4734 O.3     1  UNL1       -0.5055
     48 C         140.6938  143.3425  169.5620 C.ar    1  UNL1        0.0366
     49 C         141.4270  142.7101  168.4163 C.ar    1  UNL1        0.0031
     50 H         138.3044  142.6910  171.9517 H       1  UNL1        0.2922
@<TRIPOS>BOND
     1     8     9    1
     2     9    10    1
     3     9     7    1
     4     7     1    1
     5     1     2   ar
     6     2     3   ar
     7     3     4   ar
     8     4     5   ar
     9     5    31    1
    10    31    32    1
    11    32    33    2
    12    32    34   am
    13    34    36    1
    14    36    37    1
    15    37    38   ar
    16    38    39   ar
    17    39    40   ar
    18    40    41   ar
    19    41    43    1
    20    43    44   ar
    21    44    45   ar
    22    45    46   ar
    23    46    47    1
    24    46    48   ar
    25    48    49   ar
    26    41    42   ar
    27     5     6   ar
    28     9    11    1
    29    11    13    1
    30    13    14    1
    31    14    15    1
    32    14    17    1
    33    17    18   ar
    34    18    19   ar
    35    19    20   ar
    36    20    21    1
    37    20    22   ar
    38    22    25    1
    39    25    27    1
    40    27    28    1
    41    27    29    2
    42    27    30    2
    43    22    23   ar
    44     6     1   ar
    45    23    17   ar
    46    42    37   ar
    47    49    43   ar
    48    34    35    1
    49    47    50    1
    50    11    12    1
    51    15    16    1
    52    21    24    1
    53    25    26    1
