@<TRIPOS>MOLECULE
*****
 28 31 0 0 0
SMALL
GASTEIGER

@<TRIPOS>ATOM
      1 C         140.7654  138.4493  161.8801 C.ar    1  UNL1        0.1917
      2 N         139.5505  137.5899  161.6918 N.ar    1  UNL1       -0.1268
      3 N         138.8011  137.5556  162.9908 N.ar    1  UNL1       -0.1316
      4 C         139.5529  138.3938  163.9819 C.ar    1  UNL1        0.1615
      5 N         140.7669  138.9461  163.2955 N.ar    1  UNL1       -0.2940
      6 C         141.7168  139.8301  164.0479 C.3     1  UNL1        0.1302
      7 C         141.4528  140.1618  165.4868 C.3     1  UNL1        0.1186
      8 N         140.2388  139.6095  166.1732 N.am    1  UNL1       -0.2688
      9 C         139.9748  139.9412  167.6120 C.2     1  UNL1        0.2493
     10 O         138.7608  139.3889  168.2984 O.2     1  UNL1       -0.2699
     11 C         139.2889  138.7255  165.4207 C.3     1  UNL1        0.1343
     12 C         138.0749  138.1732  166.1071 C.3     1  UNL1        0.0298
     13 C         143.0585  140.0906  157.4161 C.3     1  UNL1        0.0744
     14 C         142.8516  139.5121  158.7845 C.ar    1  UNL1        0.1481
     15 N         143.9203  138.9524  159.6759 N.ar    1  UNL1       -0.1929
     16 S         143.2689  138.4861  160.9441 S.2     1  UNL1        0.0369
     17 C         141.7976  138.7577  160.8364 C.ar    1  UNL1        0.1652
     18 N         141.5397  139.3918  159.5017 N.ar    1  UNL1       -0.2190
     19 C         140.9247  140.8251  168.3644 C.ar    1  UNL1        0.0536
     20 C         140.5503  142.2468  168.6621 C.ar    1  UNL1        0.0045
     21 C         141.5003  143.1308  169.4146 C.ar    1  UNL1        0.0040
     22 C         142.8247  142.5931  169.8692 C.ar    1  UNL1        0.0714
     23 C         143.1992  141.1715  169.5714 C.ar    1  UNL1        0.0040
     24 C         142.2493  140.2875  168.8191 C.ar    1  UNL1        0.0045
     25 C         143.7748  143.4771  170.6216 C.3     1  UNL1        0.4186
     26 F         144.7248  144.3610  171.3740 F       1  UNL1       -0.1659
     27 F         144.9114  142.5714  170.2504 F       1  UNL1       -0.1659
     28 F         142.6382  144.3828  170.9928 F       1  UNL1       -0.1659
@<TRIPOS>BOND
     1    13    14    1
     2    14    15   ar
     3    15    16   ar
     4    16    17   ar
     5    17     1    1
     6     1     2   ar
     7     2     3   ar
     8     3     4   ar
     9     4     5   ar
    10     5     6    1
    11     6     7    1
    12     7     8    1
    13     8     9   am
    14     9    10    2
    15     9    19    1
    16    19    20   ar
    17    20    21   ar
    18    21    22   ar
    19    22    25    1
    20    25    26    1
    21    25    27    1
    22    25    28    1
    23    22    23   ar
    24    23    24   ar
    25     8    11    1
    26    11    12    1
    27    17    18   ar
    28    18    14   ar
    29     5     1   ar
    30    24    19   ar
    31    11     4    1
@<TRIPOS>MOLECULE
*****
 28 31 0 0 0
SMALL
GASTEIGER

@<TRIPOS>ATOM
      1 C         142.6976  143.6654  158.3845 C.ar    1  UNL1        0.1917
      2 N         142.6001  145.1342  158.0958 N.ar    1  UNL1       -0.1268
      3 N         141.7123  145.7528  159.1346 N.ar    1  UNL1       -0.1316
      4 C         141.2612  144.6664  160.0654 C.ar    1  UNL1        0.1615
      5 N         141.8701  143.3764  159.6018 N.ar    1  UNL1       -0.2940
      6 C         141.5924  142.1051  160.3479 C.3     1  UNL1        0.1302
      7 C         140.7058  142.1239  161.5578 C.3     1  UNL1        0.1186
      8 N         140.0969  143.4140  162.0214 N.am    1  UNL1       -0.2688
      9 C         139.2103  143.4328  163.2311 C.2     1  UNL1        0.2493
     10 O         138.6013  144.7229  163.6947 O.2     1  UNL1       -0.2699
     11 C         140.3746  144.6853  161.2751 C.3     1  UNL1        0.1343
     12 C         139.7656  145.9753  161.7387 C.3     1  UNL1        0.0298
     13 C         144.0707  140.1186  154.7219 C.3     1  UNL1        0.0744
     14 C         144.1156  141.0317  155.9111 C.ar    1  UNL1        0.1481
     15 N         145.2749  141.2037  156.8473 N.ar    1  UNL1       -0.1929
     16 S         144.8848  142.2114  157.8878 S.2     1  UNL1        0.0369
     17 C         143.4844  142.6619  157.5947 C.ar    1  UNL1        0.1652
     18 N         143.0090  141.9329  156.3730 N.ar    1  UNL1       -0.2190
     19 C         138.9326  142.1616  163.9773 C.ar    1  UNL1        0.0536
     20 C         138.0467  141.1140  163.3707 C.ar    1  UNL1        0.0045
     21 C         137.7690  139.8427  164.1169 C.ar    1  UNL1        0.0040
     22 C         138.3772  139.6190  165.4696 C.ar    1  UNL1        0.0714
     23 C         139.2631  140.6665  166.0762 C.ar    1  UNL1        0.0040
     24 C         139.5408  141.9378  165.3301 C.ar    1  UNL1        0.0045
     25 C         138.0996  138.3477  166.2159 C.3     1  UNL1        0.4186
     26 F         137.8219  137.0765  166.9621 F       1  UNL1       -0.1659
     27 F         137.7247  139.1430  167.4311 F       1  UNL1       -0.1659
     28 F         138.4745  137.5524  165.0006 F       1  UNL1       -0.1659
@<TRIPOS>BOND
     1    13    14    1
     2    14    15   ar
     3    15    16   ar
     4    16    17   ar
     5    17     1    1
     6     1     2   ar
     7     2     3   ar
     8     3     4   ar
     9     4     5   ar
    10     5     6    1
    11     6     7    1
    12     7     8    1
    13     8     9   am
    14     9    10    2
    15     9    19    1
    16    19    20   ar
    17    20    21   ar
    18    21    22   ar
    19    22    25    1
    20    25    26    1
    21    25    27    1
    22    25    28    1
    23    22    23   ar
    24    23    24   ar
    25     8    11    1
    26    11    12    1
    27    17    18   ar
    28    18    14   ar
    29     5     1   ar
    30    24    19   ar
    31    11     4    1
@<TRIPOS>MOLECULE
*****
 28 31 0 0 0
SMALL
GASTEIGER

@<TRIPOS>ATOM
      1 C         141.8975  139.7427  159.9562 C.ar    1  UNL1        0.1917
      2 N         140.9299  138.7418  159.3978 N.ar    1  UNL1       -0.1268
      3 N         140.0808  138.2380  160.5271 N.ar    1  UNL1       -0.1316
      4 C         140.5237  138.9277  161.7834 C.ar    1  UNL1        0.1615
      5 N         141.6465  139.8576  161.4306 N.ar    1  UNL1       -0.2940
      6 C         142.2952  140.6889  162.4974 C.3     1  UNL1        0.1302
      7 C         141.8212  140.5902  163.9171 C.3     1  UNL1        0.1186
      8 N         140.6984  139.6602  164.2700 N.am    1  UNL1       -0.2688
      9 C         140.2244  139.5615  165.6897 C.2     1  UNL1        0.2493
     10 O         139.1016  138.6315  166.0425 O.2     1  UNL1       -0.2699
     11 C         140.0497  138.8289  163.2031 C.3     1  UNL1        0.1343
     12 C         138.9269  137.8990  163.5560 C.3     1  UNL1        0.0298
     13 C         145.6884  140.9246  156.4758 C.3     1  UNL1        0.0744
     14 C         144.6767  141.0397  157.5772 C.ar    1  UNL1        0.1481
     15 N         144.3822  142.2731  158.3785 N.ar    1  UNL1       -0.1929
     16 S         143.3053  141.9374  159.3673 S.2     1  UNL1        0.0369
     17 C         142.9342  140.4965  159.1770 C.ar    1  UNL1        0.1652
     18 N         143.7817  139.9417  158.0707 N.ar    1  UNL1       -0.2190
     19 C         140.8731  140.3928  166.7564 C.ar    1  UNL1        0.0536
     20 C         142.0680  139.8662  167.4947 C.ar    1  UNL1        0.0045
     21 C         142.7167  140.6975  168.5616 C.ar    1  UNL1        0.0040
     22 C         142.1706  142.0554  168.8901 C.ar    1  UNL1        0.0714
     23 C         140.9758  142.5820  168.1518 C.ar    1  UNL1        0.0040
     24 C         140.3270  141.7507  167.0850 C.ar    1  UNL1        0.0045
     25 C         142.8194  142.8867  169.9569 C.3     1  UNL1        0.4186
     26 F         143.4681  143.7180  171.0237 F       1  UNL1       -0.1659
     27 F         144.0376  142.0136  169.8965 F       1  UNL1       -0.1659
     28 F         141.6012  143.7598  170.0174 F       1  UNL1       -0.1659
@<TRIPOS>BOND
     1    13    14    1
     2    14    15   ar
     3    15    16   ar
     4    16    17   ar
     5    17     1    1
     6     1     2   ar
     7     2     3   ar
     8     3     4   ar
     9     4     5   ar
    10     5     6    1
    11     6     7    1
    12     7     8    1
    13     8     9   am
    14     9    10    2
    15     9    19    1
    16    19    20   ar
    17    20    21   ar
    18    21    22   ar
    19    22    25    1
    20    25    26    1
    21    25    27    1
    22    25    28    1
    23    22    23   ar
    24    23    24   ar
    25     8    11    1
    26    11    12    1
    27    17    18   ar
    28    18    14   ar
    29     5     1   ar
    30    24    19   ar
    31    11     4    1
@<TRIPOS>MOLECULE
*****
 28 31 0 0 0
SMALL
GASTEIGER

@<TRIPOS>ATOM
      1 C         143.1189  143.3422  158.8565 C.ar    1  UNL1        0.1917
      2 N         142.4840  144.5875  158.3123 N.ar    1  UNL1       -0.1268
      3 N         141.6825  145.2178  159.4124 N.ar    1  UNL1       -0.1316
      4 C         141.8219  144.3621  160.6364 C.ar    1  UNL1        0.1615
      5 N         142.7097  143.2029  160.2929 N.ar    1  UNL1       -0.2940
      6 C         143.0308  142.1703  161.3323 C.3     1  UNL1        0.1302
      7 C         142.4641  142.2968  162.7155 C.3     1  UNL1        0.1186
      8 N         141.5763  143.4560  163.0590 N.am    1  UNL1       -0.2688
      9 C         141.0096  143.5826  164.4420 C.2     1  UNL1        0.2493
     10 O         140.1218  144.7419  164.7856 O.2     1  UNL1       -0.2699
     11 C         141.2552  144.4887  162.0194 C.3     1  UNL1        0.1343
     12 C         140.3674  145.6479  162.3630 C.3     1  UNL1        0.0298
     13 C         146.9377  141.4605  155.7329 C.3     1  UNL1        0.0744
     14 C         145.7624  141.5365  156.6618 C.ar    1  UNL1        0.1481
     15 N         144.9853  140.3706  157.1976 N.ar    1  UNL1       -0.1929
     16 S         143.9005  140.9052  158.0850 S.2     1  UNL1        0.0369
     17 C         144.0071  142.4013  158.0976 C.ar    1  UNL1        0.1652
     18 N         145.1578  142.7915  157.2180 N.ar    1  UNL1       -0.2190
     19 C         141.3307  142.5500  165.4815 C.ar    1  UNL1        0.0536
     20 C         140.3395  141.4690  165.7961 C.ar    1  UNL1        0.0045
     21 C         140.6607  140.4364  166.8356 C.ar    1  UNL1        0.0040
     22 C         141.9730  140.4847  167.5605 C.ar    1  UNL1        0.0714
     23 C         142.9642  141.5657  167.2459 C.ar    1  UNL1        0.0040
     24 C         142.6431  142.5984  166.2064 C.ar    1  UNL1        0.0045
     25 C         142.2941  139.4521  168.6000 C.3     1  UNL1        0.4186
     26 F         142.6152  138.4195  169.6395 F       1  UNL1       -0.1659
     27 F         141.3560  140.1246  169.5579 F       1  UNL1       -0.1659
     28 F         143.2323  138.7795  167.6422 F       1  UNL1       -0.1659
@<TRIPOS>BOND
     1    13    14    1
     2    14    15   ar
     3    15    16   ar
     4    16    17   ar
     5    17     1    1
     6     1     2   ar
     7     2     3   ar
     8     3     4   ar
     9     4     5   ar
    10     5     6    1
    11     6     7    1
    12     7     8    1
    13     8     9   am
    14     9    10    2
    15     9    19    1
    16    19    20   ar
    17    20    21   ar
    18    21    22   ar
    19    22    25    1
    20    25    26    1
    21    25    27    1
    22    25    28    1
    23    22    23   ar
    24    23    24   ar
    25     8    11    1
    26    11    12    1
    27    17    18   ar
    28    18    14   ar
    29     5     1   ar
    30    24    19   ar
    31    11     4    1
@<TRIPOS>MOLECULE
*****
 28 31 0 0 0
SMALL
GASTEIGER

@<TRIPOS>ATOM
      1 C         139.0354  142.1341  159.3422 C.ar    1  UNL1        0.1917
      2 N         138.1269  141.2572  158.5325 N.ar    1  UNL1       -0.1268
      3 N         137.8174  140.0349  159.3451 N.ar    1  UNL1       -0.1316
      4 C         138.5346  140.1564  160.6569 C.ar    1  UNL1        0.1615
      5 N         139.2873  141.4539  160.6551 N.ar    1  UNL1       -0.2940
      6 C         140.1050  141.8482  161.8492 C.3     1  UNL1        0.1302
      7 C         140.1698  140.9451  163.0452 C.3     1  UNL1        0.1186
      8 N         139.4171  139.6477  163.0470 N.am    1  UNL1       -0.2688
      9 C         139.4819  138.7446  164.2428 C.2     1  UNL1        0.2493
     10 O         138.7291  137.4471  164.2446 O.2     1  UNL1       -0.2699
     11 C         138.5994  139.2533  161.8528 C.3     1  UNL1        0.1343
     12 C         137.8466  137.9559  161.8545 C.3     1  UNL1        0.0298
     13 C         140.4688  146.2551  156.3684 C.3     1  UNL1        0.0744
     14 C         140.2527  145.3530  157.5472 C.ar    1  UNL1        0.1481
     15 N         140.6539  145.6416  158.9635 N.ar    1  UNL1       -0.1929
     16 S         140.2467  144.4709  159.8083 S.2     1  UNL1        0.0369
     17 C         139.5939  143.4588  158.9141 C.ar    1  UNL1        0.1652
     18 N         139.5976  144.0040  157.5167 N.ar    1  UNL1       -0.2190
     19 C         140.2995  139.1389  165.4369 C.ar    1  UNL1        0.0536
     20 C         141.7523  138.7718  165.5055 C.ar    1  UNL1        0.0045
     21 C         142.5700  139.1662  166.6997 C.ar    1  UNL1        0.0040
     22 C         141.9348  139.9276  167.8252 C.ar    1  UNL1        0.0714
     23 C         140.4820  140.2947  167.7566 C.ar    1  UNL1        0.0040
     24 C         139.6644  139.9003  166.5625 C.ar    1  UNL1        0.0045
     25 C         142.7524  140.3220  169.0194 C.3     1  UNL1        0.4186
     26 F         143.5700  140.7163  170.2136 F       1  UNL1       -0.1659
     27 F         142.3240  139.0702  169.7261 F       1  UNL1       -0.1659
     28 F         143.1809  141.5738  168.3127 F       1  UNL1       -0.1659
@<TRIPOS>BOND
     1    13    14    1
     2    14    15   ar
     3    15    16   ar
     4    16    17   ar
     5    17     1    1
     6     1     2   ar
     7     2     3   ar
     8     3     4   ar
     9     4     5   ar
    10     5     6    1
    11     6     7    1
    12     7     8    1
    13     8     9   am
    14     9    10    2
    15     9    19    1
    16    19    20   ar
    17    20    21   ar
    18    21    22   ar
    19    22    25    1
    20    25    26    1
    21    25    27    1
    22    25    28    1
    23    22    23   ar
    24    23    24   ar
    25     8    11    1
    26    11    12    1
    27    17    18   ar
    28    18    14   ar
    29     5     1   ar
    30    24    19   ar
    31    11     4    1
@<TRIPOS>MOLECULE
*****
 28 31 0 0 0
SMALL
GASTEIGER

@<TRIPOS>ATOM
      1 C         138.7848  140.0982  156.4669 C.ar    1  UNL1        0.1917
      2 N         139.9135  139.7236  155.5528 N.ar    1  UNL1       -0.1268
      3 N         141.0107  139.1341  156.3887 N.ar    1  UNL1       -0.1316
      4 C         140.5600  139.1443  157.8193 C.ar    1  UNL1        0.1615
      5 N         139.1843  139.7402  157.8677 N.ar    1  UNL1       -0.2940
      6 C         138.4732  139.8797  159.1810 C.3     1  UNL1        0.1302
      7 C         139.1378  139.4234  160.4460 C.3     1  UNL1        0.1186
      8 N         140.5135  138.8275  160.3976 N.am    1  UNL1       -0.2688
      9 C         141.1780  138.3712  161.6626 C.2     1  UNL1        0.2493
     10 O         142.5537  137.7753  161.6142 O.2     1  UNL1       -0.2699
     11 C         141.2246  138.6879  159.0843 C.3     1  UNL1        0.1343
     12 C         142.6003  138.0920  159.0359 C.3     1  UNL1        0.0298
     13 C         133.6483  140.8075  155.4698 C.3     1  UNL1        0.0744
     14 C         135.1237  141.0475  155.5947 C.ar    1  UNL1        0.1481
     15 N         135.8444  142.3136  155.2373 N.ar    1  UNL1       -0.1929
     16 S         137.3036  142.1121  155.5205 S.2     1  UNL1        0.0369
     17 C         137.4847  140.7215  156.0530 C.ar    1  UNL1        0.1652
     18 N         136.1375  140.0635  156.0988 N.ar    1  UNL1       -0.2190
     19 C         140.4669  138.5107  162.9758 C.ar    1  UNL1        0.0536
     20 C         139.5530  137.4213  163.4534 C.ar    1  UNL1        0.0045
     21 C         138.8419  137.5610  164.7668 C.ar    1  UNL1        0.0040
     22 C         139.0446  138.7899  165.6025 C.ar    1  UNL1        0.0714
     23 C         139.9585  139.8793  165.1249 C.ar    1  UNL1        0.0040
     24 C         140.6696  139.7397  163.8117 C.ar    1  UNL1        0.0045
     25 C         138.3335  138.9296  166.9159 C.3     1  UNL1        0.4186
     26 F         137.6224  139.0692  168.2292 F       1  UNL1       -0.1659
     27 F         139.0846  140.1992  167.1875 F       1  UNL1       -0.1659
     28 F         137.5823  137.6600  166.6442 F       1  UNL1       -0.1659
@<TRIPOS>BOND
     1    13    14    1
     2    14    15   ar
     3    15    16   ar
     4    16    17   ar
     5    17     1    1
     6     1     2   ar
     7     2     3   ar
     8     3     4   ar
     9     4     5   ar
    10     5     6    1
    11     6     7    1
    12     7     8    1
    13     8     9   am
    14     9    10    2
    15     9    19    1
    16    19    20   ar
    17    20    21   ar
    18    21    22   ar
    19    22    25    1
    20    25    26    1
    21    25    27    1
    22    25    28    1
    23    22    23   ar
    24    23    24   ar
    25     8    11    1
    26    11    12    1
    27    17    18   ar
    28    18    14   ar
    29     5     1   ar
    30    24    19   ar
    31    11     4    1
@<TRIPOS>MOLECULE
*****
 28 31 0 0 0
SMALL
GASTEIGER

@<TRIPOS>ATOM
      1 C         140.8558  141.1089  159.7277 C.ar    1  UNL1        0.1917
      2 N         140.0230  140.0129  159.1319 N.ar    1  UNL1       -0.1268
      3 N         139.4839  139.1776  160.2552 N.ar    1  UNL1       -0.1316
      4 C         139.9836  139.7574  161.5452 C.ar    1  UNL1        0.1615
      5 N         140.8315  140.9511  161.2192 N.ar    1  UNL1       -0.2940
      6 C         141.4719  141.7400  162.3226 C.3     1  UNL1        0.1302
      7 C         141.2644  141.3353  163.7520 C.3     1  UNL1        0.1186
      8 N         140.4165  140.1416  164.0780 N.am    1  UNL1       -0.2688
      9 C         140.2090  139.7369  165.5073 C.2     1  UNL1        0.2493
     10 O         139.3611  138.5432  165.8333 O.2     1  UNL1       -0.2699
     11 C         139.7761  139.3527  162.9745 C.3     1  UNL1        0.1343
     12 C         138.9282  138.1590  163.3005 C.3     1  UNL1        0.0298
     13 C         142.0900  145.7315  157.4941 C.3     1  UNL1        0.0744
     14 C         142.1522  144.3004  157.9392 C.ar    1  UNL1        0.1481
     15 N         143.2618  143.3340  157.6477 N.ar    1  UNL1       -0.1929
     16 S         142.9111  142.0207  158.2823 S.2     1  UNL1        0.0369
     17 C         141.5850  142.1757  158.9658 C.ar    1  UNL1        0.1652
     18 N         141.1159  143.5846  158.7538 N.ar    1  UNL1       -0.2190
     19 C         140.8493  140.5258  166.6107 C.ar    1  UNL1        0.0536
     20 C         142.1347  140.0528  167.2225 C.ar    1  UNL1        0.0045
     21 C         142.7750  140.8418  168.3259 C.ar    1  UNL1        0.0040
     22 C         142.1301  142.1037  168.8175 C.ar    1  UNL1        0.0714
     23 C         140.8448  142.5767  168.2057 C.ar    1  UNL1        0.0040
     24 C         140.2044  141.7877  167.1023 C.ar    1  UNL1        0.0045
     25 C         142.7705  142.8927  169.9209 C.3     1  UNL1        0.4186
     26 F         143.4108  143.6817  171.0243 F       1  UNL1       -0.1659
     27 F         141.5504  143.7610  170.0080 F       1  UNL1       -0.1659
     28 F         143.9905  142.0245  169.8338 F       1  UNL1       -0.1659
@<TRIPOS>BOND
     1    13    14    1
     2    14    15   ar
     3    15    16   ar
     4    16    17   ar
     5    17     1    1
     6     1     2   ar
     7     2     3   ar
     8     3     4   ar
     9     4     5   ar
    10     5     6    1
    11     6     7    1
    12     7     8    1
    13     8     9   am
    14     9    10    2
    15     9    19    1
    16    19    20   ar
    17    20    21   ar
    18    21    22   ar
    19    22    25    1
    20    25    26    1
    21    25    27    1
    22    25    28    1
    23    22    23   ar
    24    23    24   ar
    25     8    11    1
    26    11    12    1
    27    17    18   ar
    28    18    14   ar
    29     5     1   ar
    30    24    19   ar
    31    11     4    1
@<TRIPOS>MOLECULE
*****
 28 31 0 0 0
SMALL
GASTEIGER

@<TRIPOS>ATOM
      1 C         141.0180  142.1995  159.5413 C.ar    1  UNL1        0.1917
      2 N         142.0399  143.0523  158.8496 N.ar    1  UNL1       -0.1268
      3 N         142.9733  143.5939  159.8913 N.ar    1  UNL1       -0.1316
      4 C         142.5284  143.0759  161.2269 C.ar    1  UNL1        0.1615
      5 N         141.3199  142.2141  161.0106 N.ar    1  UNL1       -0.2940
      6 C         140.6505  141.5540  162.1794 C.3     1  UNL1        0.1302
      7 C         141.1896  141.7557  163.5646 C.3     1  UNL1        0.1186
      8 N         142.3981  142.6176  163.7809 N.am    1  UNL1       -0.2688
      9 C         142.9372  142.8193  165.1660 C.2     1  UNL1        0.2493
     10 O         144.1457  143.6811  165.3824 O.2     1  UNL1       -0.2699
     11 C         143.0675  143.2777  162.6120 C.3     1  UNL1        0.1343
     12 C         144.2760  144.1395  162.8283 C.3     1  UNL1        0.0298
     13 C         136.6296  141.1445  156.8010 C.3     1  UNL1        0.0744
     14 C         137.8748  140.9767  157.6204 C.ar    1  UNL1        0.1481
     15 N         138.4432  139.6755  158.1040 N.ar    1  UNL1       -0.1929
     16 S         139.6899  139.9752  158.8825 S.2     1  UNL1        0.0369
     17 C         139.8919  141.4616  158.8800 C.ar    1  UNL1        0.1652
     18 N         138.7701  142.0805  158.0999 N.ar    1  UNL1       -0.2190
     19 C         142.2679  142.1592  166.3348 C.ar    1  UNL1        0.0536
     20 C         141.0406  142.7727  166.9410 C.ar    1  UNL1        0.0045
     21 C         140.3712  142.1125  168.1099 C.ar    1  UNL1        0.0040
     22 C         140.9291  140.8389  168.6725 C.ar    1  UNL1        0.0714
     23 C         142.1564  140.2254  168.0663 C.ar    1  UNL1        0.0040
     24 C         142.8257  140.8855  166.8975 C.ar    1  UNL1        0.0045
     25 C         140.2597  140.1787  169.8414 C.3     1  UNL1        0.4186
     26 F         139.5904  139.5186  171.0102 F       1  UNL1       -0.1659
     27 F         139.1640  141.2018  169.7917 F       1  UNL1       -0.1659
     28 F         141.3555  139.1556  169.8911 F       1  UNL1       -0.1659
@<TRIPOS>BOND
     1    13    14    1
     2    14    15   ar
     3    15    16   ar
     4    16    17   ar
     5    17     1    1
     6     1     2   ar
     7     2     3   ar
     8     3     4   ar
     9     4     5   ar
    10     5     6    1
    11     6     7    1
    12     7     8    1
    13     8     9   am
    14     9    10    2
    15     9    19    1
    16    19    20   ar
    17    20    21   ar
    18    21    22   ar
    19    22    25    1
    20    25    26    1
    21    25    27    1
    22    25    28    1
    23    22    23   ar
    24    23    24   ar
    25     8    11    1
    26    11    12    1
    27    17    18   ar
    28    18    14   ar
    29     5     1   ar
    30    24    19   ar
    31    11     4    1
@<TRIPOS>MOLECULE
*****
 28 31 0 0 0
SMALL
GASTEIGER

@<TRIPOS>ATOM
      1 C         142.2363  142.2028  159.8448 C.ar    1  UNL1        0.1917
      2 N         143.1436  141.2188  159.1676 N.ar    1  UNL1       -0.1268
      3 N         143.6936  140.2978  160.2161 N.ar    1  UNL1       -0.1316
      4 C         143.1262  140.7126  161.5413 C.ar    1  UNL1        0.1615
      5 N         142.2255  141.8900  161.3118 N.ar    1  UNL1       -0.2940
      6 C         141.5120  142.5251  162.4682 C.3     1  UNL1        0.1302
      7 C         141.6990  141.9828  163.8543 C.3     1  UNL1        0.1186
      8 N         142.5997  140.8054  164.0838 N.am    1  UNL1       -0.2688
      9 C         142.7868  140.2632  165.4697 C.2     1  UNL1        0.2493
     10 O         143.6874  139.0858  165.6992 O.2     1  UNL1       -0.2699
     11 C         143.3133  140.1703  162.9272 C.3     1  UNL1        0.1343
     12 C         144.2139  138.9930  163.1567 C.3     1  UNL1        0.0298
     13 C         139.3829  144.9156  156.3264 C.3     1  UNL1        0.0744
     14 C         140.1621  144.5529  157.5557 C.ar    1  UNL1        0.1481
     15 N         140.4381  145.4543  158.7224 N.ar    1  UNL1       -0.1929
     16 S         141.2487  144.6837  159.7220 S.2     1  UNL1        0.0369
     17 C         141.4737  143.3060  159.1730 C.ar    1  UNL1        0.1652
     18 N         140.8021  143.2252  157.8341 N.ar    1  UNL1       -0.2190
     19 C         142.0732  140.8983  166.6262 C.ar    1  UNL1        0.0536
     20 C         140.6935  140.4422  166.9981 C.ar    1  UNL1        0.0045
     21 C         139.9799  141.0774  168.1546 C.ar    1  UNL1        0.0040
     22 C         140.6461  142.1686  168.9392 C.ar    1  UNL1        0.0714
     23 C         142.0258  142.6246  168.5672 C.ar    1  UNL1        0.0040
     24 C         142.7394  141.9895  167.4108 C.ar    1  UNL1        0.0045
     25 C         139.9325  142.8037  170.0957 C.3     1  UNL1        0.4186
     26 F         139.2191  143.4389  171.2522 F       1  UNL1       -0.1659
     27 F         140.7906  144.0258  169.9539 F       1  UNL1       -0.1659
     28 F         139.0744  141.5816  170.2375 F       1  UNL1       -0.1659
@<TRIPOS>BOND
     1    13    14    1
     2    14    15   ar
     3    15    16   ar
     4    16    17   ar
     5    17     1    1
     6     1     2   ar
     7     2     3   ar
     8     3     4   ar
     9     4     5   ar
    10     5     6    1
    11     6     7    1
    12     7     8    1
    13     8     9   am
    14     9    10    2
    15     9    19    1
    16    19    20   ar
    17    20    21   ar
    18    21    22   ar
    19    22    25    1
    20    25    26    1
    21    25    27    1
    22    25    28    1
    23    22    23   ar
    24    23    24   ar
    25     8    11    1
    26    11    12    1
    27    17    18   ar
    28    18    14   ar
    29     5     1   ar
    30    24    19   ar
    31    11     4    1
