@<TRIPOS>MOLECULE
*****
 41 44 0 0 0
SMALL
GASTEIGER

@<TRIPOS>ATOM
      1 C         139.7971  142.1665  160.3529 C.ar    1  UNL1        0.1067
      2 N         140.7615  143.3103  160.4606 N.ar    1  UNL1       -0.1679
      3 N         140.4657  144.0477  161.7328 N.ar    1  UNL1       -0.2340
      4 C         139.3185  143.3597  162.4115 C.ar    1  UNL1        0.1653
      5 N         138.5968  143.6416  163.6959 N.ar    1  UNL1       -0.2050
      6 C         137.4619  142.7609  164.1274 C.ar    1  UNL1        0.2014
      7 N         137.0487  141.5982  163.2745 N.ar    1  UNL1       -0.2093
      8 C         137.7704  141.3162  161.9901 C.ar    1  UNL1        0.1316
      9 N         137.3571  140.1535  161.1373 N.pl3   1  UNL1       -0.3425
     10 C         138.9053  142.1970  161.5586 C.ar    1  UNL1        0.0860
     11 H         136.6123  139.5755  161.4205 H       1  UNL1        0.1437
     12 H         137.8308  139.9685  160.2943 H       1  UNL1        0.1437
     13 C         140.7856  139.1786  157.9351 C.ar    1  UNL1        0.1418
     14 C         139.6118  139.1695  157.0012 C.ar    1  UNL1        0.0737
     15 C         138.4998  140.1594  157.1845 C.ar    1  UNL1        0.1418
     16 C         138.5616  141.1584  158.3018 C.ar    1  UNL1        0.0387
     17 C         139.7353  141.1675  159.2357 C.ar    1  UNL1        0.0256
     18 C         140.8474  140.1776  159.0523 C.ar    1  UNL1        0.0387
     19 C         142.7319  137.7722  158.9267 C.3     1  UNL1        0.2525
     20 O         141.8976  138.1888  157.7518 O.3     1  UNL1       -0.4713
     21 O         137.3261  140.1503  156.2506 O.3     1  UNL1       -0.4713
     22 C         137.5471  140.0725  154.7690 C.3     1  UNL1        0.2525
     23 C         141.1899  145.2604  162.2379 C.3     1  UNL1        0.1291
     24 C         141.9201  145.2068  163.5472 C.3     1  UNL1        0.0265
     25 C         143.4158  145.0954  163.5678 C.3     1  UNL1        0.0035
     26 C         144.0987  144.0199  162.7759 C.3     1  UNL1        0.0174
     27 C         144.3149  142.6650  163.3821 C.3     1  UNL1        0.0722
     28 N         143.2154  141.6450  163.3506 N.3     1  UNL1       -0.2698
     29 C         142.1079  141.7047  164.3604 C.3     1  UNL1        0.0939
     30 C         141.0084  140.6848  164.3289 C.3     1  UNL1        0.1110
     31 N         141.0166  139.6053  163.2875 N.am    1  UNL1       -0.2732
     32 C         139.9171  138.5854  163.2560 C.2     1  UNL1        0.2492
     33 O         139.9251  137.5057  162.2146 O.2     1  UNL1       -0.2699
     34 C         142.1241  139.5456  162.2777 C.3     1  UNL1        0.1110
     35 C         143.2235  140.5655  162.3092 C.3     1  UNL1        0.0939
     36 C         138.8096  138.6450  164.2658 C.2     1  UNL1        0.0618
     37 C         138.9087  137.8525  165.5355 C.2     1  UNL1        0.0800
     38 C         137.8012  137.9121  166.5453 C.3     1  UNL1        0.4187
     39 F         136.6937  137.9718  167.5552 F       1  UNL1       -0.1659
     40 F         137.8737  139.4104  166.5365 F       1  UNL1       -0.1659
     41 F         137.7286  136.4139  166.5542 F       1  UNL1       -0.1659
@<TRIPOS>BOND
     1    19    20    1
     2    20    13    1
     3    13    14   ar
     4    14    15   ar
     5    15    21    1
     6    21    22    1
     7    15    16   ar
     8    16    17   ar
     9    17     1    1
    10     1     2   ar
    11     2     3   ar
    12     3    23    1
    13    23    24    1
    14    24    25    1
    15    25    26    1
    16    26    27    1
    17    27    28    1
    18    28    29    1
    19    29    30    1
    20    30    31    1
    21    31    32   am
    22    32    33    2
    23    32    36    1
    24    36    37    2
    25    37    38    1
    26    38    39    1
    27    38    40    1
    28    38    41    1
    29    31    34    1
    30    34    35    1
    31     3     4   ar
    32     4     5   ar
    33     5     6   ar
    34     6     7   ar
    35     7     8   ar
    36     8     9    1
    37     8    10   ar
    38    17    18   ar
    39    18    13   ar
    40    10     1   ar
    41    35    28    1
    42    10     4   ar
    43     9    11    1
    44     9    12    1
@<TRIPOS>MOLECULE
*****
 41 44 0 0 0
SMALL
GASTEIGER

@<TRIPOS>ATOM
      1 C         141.3412  144.0280  161.2387 C.ar    1  UNL1        0.1067
      2 N         142.7766  144.2093  161.6345 N.ar    1  UNL1       -0.1679
      3 N         142.8647  144.0877  163.1270 N.ar    1  UNL1       -0.2340
      4 C         141.4838  143.8312  163.6535 C.ar    1  UNL1        0.1653
      5 N         140.9621  143.6265  165.0449 N.ar    1  UNL1       -0.2050
      6 C         139.4989  143.3849  165.2692 C.ar    1  UNL1        0.2014
      7 N         138.5572  143.3480  164.1022 N.ar    1  UNL1       -0.2093
      8 C         139.0789  143.5527  162.7108 C.ar    1  UNL1        0.1316
      9 N         138.1373  143.5158  161.5438 N.pl3   1  UNL1       -0.3425
     10 C         140.5422  143.7943  162.4865 C.ar    1  UNL1        0.0860
     11 H         137.1768  143.3572  161.6910 H       1  UNL1        0.1437
     12 H         138.4797  143.6501  160.6306 H       1  UNL1        0.1437
     13 C         140.0427  145.4371  157.7632 C.ar    1  UNL1        0.1418
     14 C         139.7169  144.1617  157.0441 C.ar    1  UNL1        0.0737
     15 C         139.9325  142.8417  157.7233 C.ar    1  UNL1        0.1418
     16 C         140.4739  142.7972  159.1214 C.ar    1  UNL1        0.0387
     17 C         140.7997  144.0725  159.8405 C.ar    1  UNL1        0.0256
     18 C         140.5841  145.3926  159.1614 C.ar    1  UNL1        0.0387
     19 C         138.9136  146.8500  155.8982 C.3     1  UNL1        0.2525
     20 O         139.8272  146.7571  157.0842 O.3     1  UNL1       -0.4713
     21 O         139.6066  141.5663  157.0042 O.3     1  UNL1       -0.4713
     22 C         140.0591  140.2514  157.5668 C.3     1  UNL1        0.2525
     23 C         144.1144  144.2025  163.9487 C.3     1  UNL1        0.1291
     24 C         144.6591  142.9979  164.6577 C.3     1  UNL1        0.0265
     25 C         145.5659  142.0476  163.9334 C.3     1  UNL1        0.0035
     26 C         145.1057  141.3910  162.6657 C.3     1  UNL1        0.0174
     27 C         144.3425  140.1010  162.7236 C.3     1  UNL1        0.0722
     28 N         143.0766  140.0138  163.5238 N.3     1  UNL1       -0.2698
     29 C         143.1339  139.6713  164.9830 C.3     1  UNL1        0.0939
     30 C         141.8683  139.5840  165.7832 C.3     1  UNL1        0.1110
     31 N         140.5452  139.8392  165.1241 N.am    1  UNL1       -0.2732
     32 C         139.2795  139.7519  165.9242 C.2     1  UNL1        0.2492
     33 O         137.9563  140.0071  165.2652 O.2     1  UNL1       -0.2699
     34 C         140.4879  140.1817  163.6648 C.3     1  UNL1        0.1110
     35 C         141.7536  140.2690  162.8646 C.3     1  UNL1        0.0939
     36 C         139.3367  139.4094  167.3835 C.2     1  UNL1        0.0618
     37 C         139.6663  140.4709  168.3907 C.2     1  UNL1        0.0800
     38 C         139.7236  140.1284  169.8499 C.3     1  UNL1        0.4187
     39 F         139.7809  139.7860  171.3091 F       1  UNL1       -0.1659
     40 F         141.0123  139.3937  169.6269 F       1  UNL1       -0.1659
     41 F         138.4351  140.8632  170.0729 F       1  UNL1       -0.1659
@<TRIPOS>BOND
     1    19    20    1
     2    20    13    1
     3    13    14   ar
     4    14    15   ar
     5    15    21    1
     6    21    22    1
     7    15    16   ar
     8    16    17   ar
     9    17     1    1
    10     1     2   ar
    11     2     3   ar
    12     3    23    1
    13    23    24    1
    14    24    25    1
    15    25    26    1
    16    26    27    1
    17    27    28    1
    18    28    29    1
    19    29    30    1
    20    30    31    1
    21    31    32   am
    22    32    33    2
    23    32    36    1
    24    36    37    2
    25    37    38    1
    26    38    39    1
    27    38    40    1
    28    38    41    1
    29    31    34    1
    30    34    35    1
    31     3     4   ar
    32     4     5   ar
    33     5     6   ar
    34     6     7   ar
    35     7     8   ar
    36     8     9    1
    37     8    10   ar
    38    17    18   ar
    39    18    13   ar
    40    10     1   ar
    41    35    28    1
    42    10     4   ar
    43     9    11    1
    44     9    12    1
@<TRIPOS>MOLECULE
*****
 41 44 0 0 0
SMALL
GASTEIGER

@<TRIPOS>ATOM
      1 C         142.1632  141.8757  164.6057 C.ar    1  UNL1        0.1067
      2 N         141.6077  143.0076  163.7932 N.ar    1  UNL1       -0.1679
      3 N         141.9764  142.7727  162.3583 N.ar    1  UNL1       -0.2340
      4 C         142.7598  141.4957  162.2840 C.ar    1  UNL1        0.1653
      5 N         143.3829  140.7660  161.1311 N.ar    1  UNL1       -0.2050
      6 C         144.1214  139.4820  161.3672 C.ar    1  UNL1        0.2014
      7 N         144.2368  138.9276  162.7562 N.ar    1  UNL1       -0.2093
      8 C         143.6137  139.6572  163.9091 C.ar    1  UNL1        0.1316
      9 N         143.7291  139.1028  165.2981 N.pl3   1  UNL1       -0.3425
     10 C         142.8752  140.9413  163.6730 C.ar    1  UNL1        0.0860
     11 H         144.2138  138.2600  165.4531 H       1  UNL1        0.1437
     12 H         143.3201  139.5817  166.0548 H       1  UNL1        0.1437
     13 C         140.7540  140.7498  168.1408 C.ar    1  UNL1        0.1418
     14 C         141.7636  141.3716  169.0595 C.ar    1  UNL1        0.0737
     15 C         142.9063  142.1615  168.4937 C.ar    1  UNL1        0.1418
     16 C         143.0395  142.3295  167.0090 C.ar    1  UNL1        0.0387
     17 C         142.0300  141.7077  166.0903 C.ar    1  UNL1        0.0256
     18 C         140.8872  140.9178  166.6562 C.ar    1  UNL1        0.0387
     19 C         139.1715  140.1864  170.1227 C.3     1  UNL1        0.2525
     20 O         139.6113  139.9599  168.7066 O.3     1  UNL1       -0.4713
     21 O         143.9159  142.7834  169.4124 O.3     1  UNL1       -0.4713
     22 C         143.4813  143.3477  170.7325 C.3     1  UNL1        0.2525
     23 C         141.6238  143.6592  161.2008 C.3     1  UNL1        0.1291
     24 C         142.3195  143.4849  159.8833 C.3     1  UNL1        0.0265
     25 C         141.6761  142.6753  158.7968 C.3     1  UNL1        0.0035
     26 C         140.2137  142.8384  158.5060 C.3     1  UNL1        0.0174
     27 C         139.2615  141.7166  158.7975 C.3     1  UNL1        0.0722
     28 N         139.5422  140.7686  159.9256 N.3     1  UNL1       -0.2698
     29 C         139.0019  141.0525  161.2959 C.3     1  UNL1        0.0939
     30 C         139.2826  140.1047  162.4240 C.3     1  UNL1        0.1110
     31 N         140.1035  138.8728  162.1818 N.am    1  UNL1       -0.2732
     32 C         140.3841  137.9248  163.3099 C.2     1  UNL1        0.2492
     33 O         141.2050  136.6929  163.0678 O.2     1  UNL1       -0.2699
     34 C         140.6437  138.5889  160.8116 C.3     1  UNL1        0.1110
     35 C         140.3631  139.5368  159.6835 C.3     1  UNL1        0.0939
     36 C         139.8439  138.2087  164.6801 C.2     1  UNL1        0.0618
     37 C         138.4069  137.9160  164.9953 C.2     1  UNL1        0.0800
     38 C         137.8667  138.1999  166.3655 C.3     1  UNL1        0.4187
     39 F         137.3265  138.4838  167.7358 F       1  UNL1       -0.1659
     40 F         137.9102  139.6715  166.0778 F       1  UNL1       -0.1659
     41 F         137.8232  136.7284  166.6533 F       1  UNL1       -0.1659
@<TRIPOS>BOND
     1    19    20    1
     2    20    13    1
     3    13    14   ar
     4    14    15   ar
     5    15    21    1
     6    21    22    1
     7    15    16   ar
     8    16    17   ar
     9    17     1    1
    10     1     2   ar
    11     2     3   ar
    12     3    23    1
    13    23    24    1
    14    24    25    1
    15    25    26    1
    16    26    27    1
    17    27    28    1
    18    28    29    1
    19    29    30    1
    20    30    31    1
    21    31    32   am
    22    32    33    2
    23    32    36    1
    24    36    37    2
    25    37    38    1
    26    38    39    1
    27    38    40    1
    28    38    41    1
    29    31    34    1
    30    34    35    1
    31     3     4   ar
    32     4     5   ar
    33     5     6   ar
    34     6     7   ar
    35     7     8   ar
    36     8     9    1
    37     8    10   ar
    38    17    18   ar
    39    18    13   ar
    40    10     1   ar
    41    35    28    1
    42    10     4   ar
    43     9    11    1
    44     9    12    1
@<TRIPOS>MOLECULE
*****
 41 44 0 0 0
SMALL
GASTEIGER

@<TRIPOS>ATOM
      1 C         139.7143  142.0718  160.0935 C.ar    1  UNL1        0.1067
      2 N         140.6784  143.2176  160.1810 N.ar    1  UNL1       -0.1679
      3 N         140.4280  143.9363  161.4737 N.ar    1  UNL1       -0.2340
      4 C         139.3092  143.2346  162.1850 C.ar    1  UNL1        0.1653
      5 N         138.6351  143.4961  163.4992 N.ar    1  UNL1       -0.2050
      6 C         137.5199  142.6053  163.9604 C.ar    1  UNL1        0.2014
      7 N         137.0788  141.4530  163.1074 N.ar    1  UNL1       -0.2093
      8 C         137.7529  141.1915  161.7932 C.ar    1  UNL1        0.1316
      9 N         137.3118  140.0392  160.9402 N.pl3   1  UNL1       -0.3425
     10 C         138.8681  142.0823  161.3320 C.ar    1  UNL1        0.0860
     11 H         136.5799  139.4545  161.2429 H       1  UNL1        0.1437
     12 H         137.7542  139.8676  160.0776 H       1  UNL1        0.1437
     13 C         138.4784  140.2924  156.7683 C.ar    1  UNL1        0.1418
     14 C         139.4133  139.1209  156.7094 C.ar    1  UNL1        0.0737
     15 C         140.4485  138.9330  157.7786 C.ar    1  UNL1        0.1418
     16 C         140.5488  139.9167  158.9066 C.ar    1  UNL1        0.0387
     17 C         139.6140  141.0882  158.9655 C.ar    1  UNL1        0.0256
     18 C         138.5787  141.2761  157.8963 C.ar    1  UNL1        0.0387
     19 C         137.2886  139.4540  154.6163 C.3     1  UNL1        0.2525
     20 O         137.4432  140.4804  155.6992 O.3     1  UNL1       -0.4713
     21 O         141.3834  137.7615  157.7197 O.3     1  UNL1       -0.4713
     22 C         142.6190  137.7445  158.5700 C.3     1  UNL1        0.2525
     23 C         141.1667  145.1445  161.9682 C.3     1  UNL1        0.1291
     24 C         141.7545  145.1514  163.3483 C.3     1  UNL1        0.0265
     25 C         143.2436  145.1534  163.5292 C.3     1  UNL1        0.0035
     26 C         144.0752  144.0671  162.9143 C.3     1  UNL1        0.0174
     27 C         144.2201  142.7474  163.6124 C.3     1  UNL1        0.0722
     28 N         143.1491  141.7057  163.4771 N.3     1  UNL1       -0.2698
     29 C         142.0308  141.6459  164.4750 C.3     1  UNL1        0.0939
     30 C         140.9599  140.6043  164.3398 C.3     1  UNL1        0.1110
     31 N         141.0074  139.6226  163.2067 N.am    1  UNL1       -0.2732
     32 C         139.9365  138.5811  163.0714 C.2     1  UNL1        0.2492
     33 O         139.9838  137.5993  161.9383 O.2     1  UNL1       -0.2699
     34 C         142.1257  139.6825  162.2088 C.3     1  UNL1        0.1110
     35 C         143.1966  140.7240  162.3440 C.3     1  UNL1        0.0939
     36 C         138.8182  138.5212  164.0693 C.2     1  UNL1        0.0618
     37 C         139.0927  138.0864  165.4783 C.2     1  UNL1        0.0800
     38 C         137.9744  138.0265  166.4762 C.3     1  UNL1        0.4187
     39 F         136.8561  137.9666  167.4741 F       1  UNL1       -0.1659
     40 F         137.7195  136.5957  166.1047 F       1  UNL1       -0.1659
     41 F         138.2293  139.4572  166.8477 F       1  UNL1       -0.1659
@<TRIPOS>BOND
     1    19    20    1
     2    20    13    1
     3    13    14   ar
     4    14    15   ar
     5    15    21    1
     6    21    22    1
     7    15    16   ar
     8    16    17   ar
     9    17     1    1
    10     1     2   ar
    11     2     3   ar
    12     3    23    1
    13    23    24    1
    14    24    25    1
    15    25    26    1
    16    26    27    1
    17    27    28    1
    18    28    29    1
    19    29    30    1
    20    30    31    1
    21    31    32   am
    22    32    33    2
    23    32    36    1
    24    36    37    2
    25    37    38    1
    26    38    39    1
    27    38    40    1
    28    38    41    1
    29    31    34    1
    30    34    35    1
    31     3     4   ar
    32     4     5   ar
    33     5     6   ar
    34     6     7   ar
    35     7     8   ar
    36     8     9    1
    37     8    10   ar
    38    17    18   ar
    39    18    13   ar
    40    10     1   ar
    41    35    28    1
    42    10     4   ar
    43     9    11    1
    44     9    12    1
@<TRIPOS>MOLECULE
*****
 41 44 0 0 0
SMALL
GASTEIGER

@<TRIPOS>ATOM
      1 C         141.5410  144.1520  161.1926 C.ar    1  UNL1        0.1067
      2 N         142.9522  144.3222  161.6718 N.ar    1  UNL1       -0.1679
      3 N         142.9539  144.1866  163.1657 N.ar    1  UNL1       -0.2340
      4 C         141.5438  143.9326  163.6097 C.ar    1  UNL1        0.1653
      5 N         140.9422  143.7180  164.9669 N.ar    1  UNL1       -0.2050
      6 C         139.4673  143.4821  165.1046 C.ar    1  UNL1        0.2014
      7 N         138.5941  143.4607  163.8852 N.ar    1  UNL1       -0.2093
      8 C         139.1957  143.6753  162.5280 C.ar    1  UNL1        0.1316
      9 N         138.3225  143.6539  161.3086 N.pl3   1  UNL1       -0.3425
     10 C         140.6706  143.9112  162.3903 C.ar    1  UNL1        0.0860
     11 H         137.3545  143.4990  161.3990 H       1  UNL1        0.1437
     12 H         138.7174  143.7947  160.4178 H       1  UNL1        0.1437
     13 C         140.6338  143.0327  157.4947 C.ar    1  UNL1        0.1418
     14 C         140.1610  144.3321  156.9132 C.ar    1  UNL1        0.0737
     15 C         140.1481  145.5714  157.7582 C.ar    1  UNL1        0.1418
     16 C         140.6082  145.5113  159.1846 C.ar    1  UNL1        0.0387
     17 C         141.0810  144.2121  159.7662 C.ar    1  UNL1        0.0256
     18 C         141.0939  142.9727  158.9212 C.ar    1  UNL1        0.0387
     19 C         140.9483  140.4633  157.2741 C.3     1  UNL1        0.2525
     20 O         140.6467  141.7934  156.6498 O.3     1  UNL1       -0.4713
     21 O         139.6753  146.8707  157.1767 O.3     1  UNL1       -0.4713
     22 C         139.5796  147.0359  155.6889 C.3     1  UNL1        0.2525
     23 C         144.1549  144.2874  164.0587 C.3     1  UNL1        0.1291
     24 C         144.6409  143.0780  164.8013 C.3     1  UNL1        0.0265
     25 C         145.4989  142.0643  164.1038 C.3     1  UNL1        0.0035
     26 C         145.0910  141.5327  162.7618 C.3     1  UNL1        0.0174
     27 C         144.2540  140.2913  162.6698 C.3     1  UNL1        0.0722
     28 N         142.9948  140.1743  163.4767 N.3     1  UNL1       -0.2698
     29 C         143.0665  139.8123  164.9306 C.3     1  UNL1        0.0939
     30 C         141.8075  139.6953  165.7374 C.3     1  UNL1        0.1110
     31 N         140.4766  139.9402  165.0903 N.am    1  UNL1       -0.2732
     32 C         139.2175  139.8231  165.8970 C.2     1  UNL1        0.2492
     33 O         137.8865  140.0680  165.2500 O.2     1  UNL1       -0.2699
     34 C         140.4048  140.3021  163.6364 C.3     1  UNL1        0.1110
     35 C         141.6639  140.4192  162.8295 C.3     1  UNL1        0.0939
     36 C         139.2892  139.4612  167.3509 C.2     1  UNL1        0.0618
     37 C         139.7025  140.4906  168.3606 C.2     1  UNL1        0.0800
     38 C         139.7743  140.1286  169.8145 C.3     1  UNL1        0.4187
     39 F         139.8460  139.7667  171.2684 F       1  UNL1       -0.1659
     40 F         141.0890  139.4456  169.5796 F       1  UNL1       -0.1659
     41 F         138.4596  140.8116  170.0494 F       1  UNL1       -0.1659
@<TRIPOS>BOND
     1    19    20    1
     2    20    13    1
     3    13    14   ar
     4    14    15   ar
     5    15    21    1
     6    21    22    1
     7    15    16   ar
     8    16    17   ar
     9    17     1    1
    10     1     2   ar
    11     2     3   ar
    12     3    23    1
    13    23    24    1
    14    24    25    1
    15    25    26    1
    16    26    27    1
    17    27    28    1
    18    28    29    1
    19    29    30    1
    20    30    31    1
    21    31    32   am
    22    32    33    2
    23    32    36    1
    24    36    37    2
    25    37    38    1
    26    38    39    1
    27    38    40    1
    28    38    41    1
    29    31    34    1
    30    34    35    1
    31     3     4   ar
    32     4     5   ar
    33     5     6   ar
    34     6     7   ar
    35     7     8   ar
    36     8     9    1
    37     8    10   ar
    38    17    18   ar
    39    18    13   ar
    40    10     1   ar
    41    35    28    1
    42    10     4   ar
    43     9    11    1
    44     9    12    1
@<TRIPOS>MOLECULE
*****
 41 44 0 0 0
SMALL
GASTEIGER

@<TRIPOS>ATOM
      1 C         139.6249  141.1423  163.5855 C.ar    1  UNL1        0.1067
      2 N         139.2842  140.2383  162.4380 N.ar    1  UNL1       -0.1679
      3 N         139.1156  141.0876  161.2132 N.ar    1  UNL1       -0.2340
      4 C         139.3521  142.5164  161.6036 C.ar    1  UNL1        0.1653
      5 N         139.3215  143.7911  160.8135 N.ar    1  UNL1       -0.2050
      6 C         139.6057  145.0995  161.4896 C.ar    1  UNL1        0.2014
      7 N         139.9205  145.1333  162.9558 N.ar    1  UNL1       -0.2093
      8 C         139.9511  143.8587  163.7459 C.ar    1  UNL1        0.1316
      9 N         140.2659  143.8925  165.2121 N.pl3   1  UNL1       -0.3425
     10 C         139.6669  142.5502  163.0698 C.ar    1  UNL1        0.0860
     11 H         140.4525  144.7513  165.6558 H       1  UNL1        0.1437
     12 H         140.2860  143.0559  165.7307 H       1  UNL1        0.1437
     13 C         139.0489  139.6078  167.1999 C.ar    1  UNL1        0.1418
     14 C         140.3873  139.8562  167.8299 C.ar    1  UNL1        0.0737
     15 C         141.4716  140.5332  167.0451 C.ar    1  UNL1        0.1418
     16 C         141.2175  140.9619  165.6303 C.ar    1  UNL1        0.0387
     17 C         139.8791  140.7136  165.0003 C.ar    1  UNL1        0.0256
     18 C         138.7947  140.0365  165.7851 C.ar    1  UNL1        0.0387
     19 C         137.1384  137.8534  167.3470 C.3     1  UNL1        0.2525
     20 O         137.9646  138.9308  167.9846 O.3     1  UNL1       -0.4713
     21 O         142.8100  140.7816  167.6751 O.3     1  UNL1       -0.4713
     22 C         142.9523  141.8180  168.7501 C.3     1  UNL1        0.2525
     23 C         138.7709  140.5946  159.8390 C.3     1  UNL1        0.1291
     24 C         139.8585  140.1446  158.9090 C.3     1  UNL1        0.0265
     25 C         140.3631  138.7334  158.9722 C.3     1  UNL1        0.0035
     26 C         141.3606  138.2478  157.9628 C.3     1  UNL1        0.0174
     27 C         142.8231  138.2428  158.2961 C.3     1  UNL1        0.0722
     28 N         143.2933  138.7774  159.6165 N.3     1  UNL1       -0.2698
     29 C         143.5096  140.2510  159.7949 C.3     1  UNL1        0.0939
     30 C         143.9797  140.7856  161.1152 C.3     1  UNL1        0.1110
     31 N         144.2335  139.8467  162.2571 N.am    1  UNL1       -0.2732
     32 C         144.7036  140.3812  163.5774 C.2     1  UNL1        0.2492
     33 O         144.9574  139.4423  164.7193 O.2     1  UNL1       -0.2699
     34 C         144.0172  138.3731  162.0786 C.3     1  UNL1        0.1110
     35 C         143.5471  137.8385  160.7584 C.3     1  UNL1        0.0939
     36 C         144.9199  141.8548  163.7558 C.2     1  UNL1        0.0618
     37 C         143.8498  142.6997  164.3810 C.2     1  UNL1        0.0800
     38 C         144.0661  144.1732  164.5594 C.3     1  UNL1        0.4187
     39 F         144.2824  145.6468  164.7378 F       1  UNL1       -0.1659
     40 F         143.1477  144.4478  163.4056 F       1  UNL1       -0.1659
     41 F         144.9845  143.8987  165.7131 F       1  UNL1       -0.1659
@<TRIPOS>BOND
     1    19    20    1
     2    20    13    1
     3    13    14   ar
     4    14    15   ar
     5    15    21    1
     6    21    22    1
     7    15    16   ar
     8    16    17   ar
     9    17     1    1
    10     1     2   ar
    11     2     3   ar
    12     3    23    1
    13    23    24    1
    14    24    25    1
    15    25    26    1
    16    26    27    1
    17    27    28    1
    18    28    29    1
    19    29    30    1
    20    30    31    1
    21    31    32   am
    22    32    33    2
    23    32    36    1
    24    36    37    2
    25    37    38    1
    26    38    39    1
    27    38    40    1
    28    38    41    1
    29    31    34    1
    30    34    35    1
    31     3     4   ar
    32     4     5   ar
    33     5     6   ar
    34     6     7   ar
    35     7     8   ar
    36     8     9    1
    37     8    10   ar
    38    17    18   ar
    39    18    13   ar
    40    10     1   ar
    41    35    28    1
    42    10     4   ar
    43     9    11    1
    44     9    12    1
@<TRIPOS>MOLECULE
*****
 41 44 0 0 0
SMALL
GASTEIGER

@<TRIPOS>ATOM
      1 C         141.1356  144.0048  161.1109 C.ar    1  UNL1        0.1067
      2 N         142.3853  144.3884  161.8464 N.ar    1  UNL1       -0.1679
      3 N         142.1554  144.1462  163.3087 N.ar    1  UNL1       -0.2340
      4 C         140.7636  143.6128  163.4770 C.ar    1  UNL1        0.1653
      5 N         139.9887  143.1955  164.6916 N.ar    1  UNL1       -0.2050
      6 C         138.5835  142.6907  164.5479 C.ar    1  UNL1        0.2014
      7 N         137.9532  142.6034  163.1896 N.ar    1  UNL1       -0.2093
      8 C         138.7281  143.0207  161.9750 C.ar    1  UNL1        0.1316
      9 N         138.0978  142.9334  160.6166 N.pl3   1  UNL1       -0.3425
     10 C         140.1332  143.5255  162.1187 C.ar    1  UNL1        0.0860
     11 H         137.1755  142.6021  160.5223 H       1  UNL1        0.1437
     12 H         138.6063  143.2073  159.8194 H       1  UNL1        0.1437
     13 C         140.9354  142.9561  157.2885 C.ar    1  UNL1        0.1418
     14 C         140.5040  144.2490  156.6621 C.ar    1  UNL1        0.0737
     15 C         140.2831  145.4604  157.5186 C.ar    1  UNL1        0.1418
     16 C         140.4936  145.3790  159.0015 C.ar    1  UNL1        0.0387
     17 C         140.9250  144.0862  159.6280 C.ar    1  UNL1        0.0256
     18 C         141.1459  142.8747  158.7714 C.ar    1  UNL1        0.0387
     19 C         142.3760  140.8953  156.6347 C.3     1  UNL1        0.2525
     20 O         141.1563  141.7447  156.4321 O.3     1  UNL1       -0.4713
     21 O         139.8516  146.7532  156.8922 O.3     1  UNL1       -0.4713
     22 C         138.8788  146.7456  155.7504 C.3     1  UNL1        0.2525
     23 C         143.1438  144.3938  164.4095 C.3     1  UNL1        0.1291
     24 C         144.3440  143.5055  164.5537 C.3     1  UNL1        0.0265
     25 C         144.7395  142.5913  163.4322 C.3     1  UNL1        0.0035
     26 C         145.7852  141.5393  163.6555 C.3     1  UNL1        0.0174
     27 C         145.3840  140.1685  164.1135 C.3     1  UNL1        0.0722
     28 N         143.9630  139.7126  163.9611 N.3     1  UNL1       -0.2698
     29 C         142.9753  139.9548  165.0637 C.3     1  UNL1        0.0939
     30 C         141.5544  139.4991  164.9113 C.3     1  UNL1        0.1110
     31 N         141.1212  138.8011  163.6562 N.am    1  UNL1       -0.2732
     32 C         139.7003  138.3453  163.5037 C.2     1  UNL1        0.2492
     33 O         139.2670  137.6474  162.2487 O.2     1  UNL1       -0.2699
     34 C         142.1089  138.5589  162.5536 C.3     1  UNL1        0.1110
     35 C         143.5298  139.0147  162.7060 C.3     1  UNL1        0.0939
     36 C         138.7126  138.5875  164.6063 C.2     1  UNL1        0.0618
     37 C         138.5873  137.6027  165.7308 C.2     1  UNL1        0.0800
     38 C         137.5995  137.8449  166.8334 C.3     1  UNL1        0.4187
     39 F         136.6118  138.0871  167.9360 F       1  UNL1       -0.1659
     40 F         137.6533  139.3185  166.5580 F       1  UNL1       -0.1659
     41 F         137.5457  136.3714  167.1088 F       1  UNL1       -0.1659
@<TRIPOS>BOND
     1    19    20    1
     2    20    13    1
     3    13    14   ar
     4    14    15   ar
     5    15    21    1
     6    21    22    1
     7    15    16   ar
     8    16    17   ar
     9    17     1    1
    10     1     2   ar
    11     2     3   ar
    12     3    23    1
    13    23    24    1
    14    24    25    1
    15    25    26    1
    16    26    27    1
    17    27    28    1
    18    28    29    1
    19    29    30    1
    20    30    31    1
    21    31    32   am
    22    32    33    2
    23    32    36    1
    24    36    37    2
    25    37    38    1
    26    38    39    1
    27    38    40    1
    28    38    41    1
    29    31    34    1
    30    34    35    1
    31     3     4   ar
    32     4     5   ar
    33     5     6   ar
    34     6     7   ar
    35     7     8   ar
    36     8     9    1
    37     8    10   ar
    38    17    18   ar
    39    18    13   ar
    40    10     1   ar
    41    35    28    1
    42    10     4   ar
    43     9    11    1
    44     9    12    1
@<TRIPOS>MOLECULE
*****
 41 44 0 0 0
SMALL
GASTEIGER

@<TRIPOS>ATOM
      1 C         139.4705  140.6427  161.0115 C.ar    1  UNL1        0.1067
      2 N         138.9373  142.0445  160.9879 N.ar    1  UNL1       -0.1679
      3 N         138.3589  142.3432  162.3392 N.ar    1  UNL1       -0.2340
      4 C         138.5346  141.1260  163.1981 C.ar    1  UNL1        0.1653
      5 N         138.1578  140.8390  164.6213 N.ar    1  UNL1       -0.2050
      6 C         138.4680  139.5009  165.2239 C.ar    1  UNL1        0.2014
      7 N         139.1551  138.4499  164.4034 N.ar    1  UNL1       -0.2093
      8 C         139.5319  138.7369  162.9802 C.ar    1  UNL1        0.1316
      9 N         140.2189  137.6859  162.1596 N.pl3   1  UNL1       -0.3425
     10 C         139.2216  140.0750  162.3775 C.ar    1  UNL1        0.0860
     11 H         140.4225  136.8077  162.5551 H       1  UNL1        0.1437
     12 H         140.4662  137.8744  161.2255 H       1  UNL1        0.1437
     13 C         142.2842  139.3388  158.5350 C.ar    1  UNL1        0.1418
     14 C         141.4665  138.5137  157.5860 C.ar    1  UNL1        0.0737
     15 C         139.9834  138.3983  157.7789 C.ar    1  UNL1        0.1418
     16 C         139.3181  139.1079  158.9208 C.ar    1  UNL1        0.0387
     17 C         140.1358  139.9330  159.8697 C.ar    1  UNL1        0.0256
     18 C         141.6189  140.0485  159.6768 C.ar    1  UNL1        0.0387
     19 C         144.3815  140.7869  158.0306 C.3     1  UNL1        0.2525
     20 O         143.7673  139.4543  158.3421 O.3     1  UNL1       -0.4713
     21 O         139.1657  137.5732  156.8300 O.3     1  UNL1       -0.4713
     22 C         139.8105  136.9587  155.6231 C.3     1  UNL1        0.2525
     23 C         137.7173  143.6327  162.7582 C.3     1  UNL1        0.1291
     24 C         138.5658  144.7667  163.2527 C.3     1  UNL1        0.0265
     25 C         139.5656  145.4097  162.3378 C.3     1  UNL1        0.0035
     26 C         141.0052  145.5048  162.7482 C.3     1  UNL1        0.0174
     27 C         141.9456  144.3743  162.4522 C.3     1  UNL1        0.0722
     28 N         142.0312  143.2052  163.3883 N.3     1  UNL1       -0.2698
     29 C         141.7746  143.3973  164.8536 C.3     1  UNL1        0.0939
     30 C         141.8602  142.2284  165.7896 C.3     1  UNL1        0.1110
     31 N         142.2024  140.8672  165.2602 N.am    1  UNL1       -0.2732
     32 C         142.2880  139.6982  166.1962 C.2     1  UNL1        0.2492
     33 O         142.6301  138.3370  165.6669 O.2     1  UNL1       -0.2699
     34 C         142.4589  140.6751  163.7949 C.3     1  UNL1        0.1110
     35 C         142.3733  141.8440  162.8589 C.3     1  UNL1        0.0939
     36 C         142.0314  139.8903  167.6616 C.2     1  UNL1        0.0618
     37 C         140.6268  139.8624  168.1871 C.2     1  UNL1        0.0800
     38 C         140.3702  140.0545  169.6524 C.3     1  UNL1        0.4187
     39 F         140.1137  140.2466  171.1178 F       1  UNL1       -0.1659
     40 F         139.2522  141.0021  169.3325 F       1  UNL1       -0.1659
     41 F         141.4882  139.1070  169.9724 F       1  UNL1       -0.1659
@<TRIPOS>BOND
     1    19    20    1
     2    20    13    1
     3    13    14   ar
     4    14    15   ar
     5    15    21    1
     6    21    22    1
     7    15    16   ar
     8    16    17   ar
     9    17     1    1
    10     1     2   ar
    11     2     3   ar
    12     3    23    1
    13    23    24    1
    14    24    25    1
    15    25    26    1
    16    26    27    1
    17    27    28    1
    18    28    29    1
    19    29    30    1
    20    30    31    1
    21    31    32   am
    22    32    33    2
    23    32    36    1
    24    36    37    2
    25    37    38    1
    26    38    39    1
    27    38    40    1
    28    38    41    1
    29    31    34    1
    30    34    35    1
    31     3     4   ar
    32     4     5   ar
    33     5     6   ar
    34     6     7   ar
    35     7     8   ar
    36     8     9    1
    37     8    10   ar
    38    17    18   ar
    39    18    13   ar
    40    10     1   ar
    41    35    28    1
    42    10     4   ar
    43     9    11    1
    44     9    12    1
@<TRIPOS>MOLECULE
*****
 41 44 0 0 0
SMALL
GASTEIGER

@<TRIPOS>ATOM
      1 C         140.8629  140.2649  160.8328 C.ar    1  UNL1        0.1067
      2 N         141.8021  139.5251  159.9270 N.ar    1  UNL1       -0.1679
      3 N         141.5474  139.9828  158.5214 N.ar    1  UNL1       -0.2340
      4 C         140.4507  141.0055  158.5585 C.ar    1  UNL1        0.1653
      5 N         139.7826  141.8005  157.4761 N.ar    1  UNL1       -0.2050
      6 C         138.6915  142.7698  157.8222 C.ar    1  UNL1        0.2014
      7 N         138.2685  142.9442  159.2507 N.ar    1  UNL1       -0.2093
      8 C         138.9365  142.1492  160.3331 C.ar    1  UNL1        0.1316
      9 N         138.5135  142.3236  161.7616 N.pl3   1  UNL1       -0.3425
     10 C         140.0276  141.1799  159.9870 C.ar    1  UNL1        0.0860
     11 H         137.7974  142.9598  161.9888 H       1  UNL1        0.1437
     12 H         138.9520  141.8018  162.4721 H       1  UNL1        0.1437
     13 C         141.6630  140.6832  164.6974 C.ar    1  UNL1        0.1418
     14 C         140.5975  139.8182  165.3027 C.ar    1  UNL1        0.0737
     15 C         139.6204  139.1022  164.4181 C.ar    1  UNL1        0.1418
     16 C         139.7089  139.2511  162.9281 C.ar    1  UNL1        0.0387
     17 C         140.7744  140.1160  162.3227 C.ar    1  UNL1        0.0256
     18 C         141.7515  140.8321  163.2074 C.ar    1  UNL1        0.0387
     19 C         143.8492  142.0568  164.9857 C.3     1  UNL1        0.2525
     20 O         142.6401  141.3993  165.5820 O.3     1  UNL1       -0.4713
     21 O         138.5549  138.2372  165.0234 O.3     1  UNL1       -0.4713
     22 C         137.9928  138.5733  166.3729 C.3     1  UNL1        0.2525
     23 C         142.2635  139.5022  157.2942 C.3     1  UNL1        0.1291
     24 C         143.4402  140.2672  156.7646 C.3     1  UNL1        0.0265
     25 C         144.5423  140.6850  157.6923 C.3     1  UNL1        0.0035
     26 C         144.8529  142.1403  157.8805 C.3     1  UNL1        0.0174
     27 C         143.8301  143.1777  157.5229 C.3     1  UNL1        0.0722
     28 N         142.9404  143.7514  158.5857 N.3     1  UNL1       -0.2698
     29 C         143.0726  143.2868  160.0058 C.3     1  UNL1        0.0939
     30 C         142.1831  143.8604  161.0686 C.3     1  UNL1        0.1110
     31 N         141.1612  144.8988  160.7112 N.am    1  UNL1       -0.2732
     32 C         140.2716  145.4725  161.7740 C.2     1  UNL1        0.2492
     33 O         139.2497  146.5108  161.4167 O.2     1  UNL1       -0.2699
     34 C         141.0290  145.3634  159.2912 C.3     1  UNL1        0.1110
     35 C         141.9186  144.7898  158.2284 C.3     1  UNL1        0.0939
     36 C         140.4038  145.0078  163.1940 C.2     1  UNL1        0.0618
     37 C         139.1964  144.9586  164.0826 C.2     1  UNL1        0.0800
     38 C         139.3286  144.4940  165.5027 C.3     1  UNL1        0.4187
     39 F         139.4608  144.0293  166.9227 F       1  UNL1       -0.1659
     40 F         140.6437  143.8533  165.1707 F       1  UNL1       -0.1659
     41 F         138.0136  145.1346  165.8347 F       1  UNL1       -0.1659
@<TRIPOS>BOND
     1    19    20    1
     2    20    13    1
     3    13    14   ar
     4    14    15   ar
     5    15    21    1
     6    21    22    1
     7    15    16   ar
     8    16    17   ar
     9    17     1    1
    10     1     2   ar
    11     2     3   ar
    12     3    23    1
    13    23    24    1
    14    24    25    1
    15    25    26    1
    16    26    27    1
    17    27    28    1
    18    28    29    1
    19    29    30    1
    20    30    31    1
    21    31    32   am
    22    32    33    2
    23    32    36    1
    24    36    37    2
    25    37    38    1
    26    38    39    1
    27    38    40    1
    28    38    41    1
    29    31    34    1
    30    34    35    1
    31     3     4   ar
    32     4     5   ar
    33     5     6   ar
    34     6     7   ar
    35     7     8   ar
    36     8     9    1
    37     8    10   ar
    38    17    18   ar
    39    18    13   ar
    40    10     1   ar
    41    35    28    1
    42    10     4   ar
    43     9    11    1
    44     9    12    1
