@<TRIPOS>MOLECULE
*****
 32 36 0 0 0
SMALL
GASTEIGER

@<TRIPOS>ATOM
      1 O         140.4920  137.1008  163.1006 O.2     1  UNL1       -0.2668
      2 C         140.1958  138.5369  163.4162 C.2     1  UNL1        0.2806
      3 N         140.2340  139.5675  162.3270 N.am    1  UNL1       -0.2999
      4 H         140.0395  140.5101  162.5342 H       1  UNL1        0.1498
      5 C         139.8613  138.9425  164.8211 C.ar    1  UNL1        0.2014
      6 C         138.6973  138.3121  165.5267 C.ar    1  UNL1        0.0843
      7 C         138.3628  138.7176  166.9316 C.ar    1  UNL1        0.2018
      8 O         137.1989  138.0873  167.6372 O.2     1  UNL1       -0.2864
      9 C         139.1922  139.7536  167.6309 C.ar    1  UNL1        0.0736
     10 C         138.8577  140.1591  169.0357 C.ar    1  UNL1        0.0067
     11 C         139.6871  141.1950  169.7349 C.ar    1  UNL1        0.0070
     12 C         140.8511  141.8254  169.0293 C.ar    1  UNL1        0.0376
     13 BR        141.6805  142.8614  169.7286 Br      1  UNL1       -0.0489
     14 C         141.1856  141.4199  167.6244 C.ar    1  UNL1        0.0443
     15 C         140.3562  140.3840  166.9252 C.ar    1  UNL1        0.1490
     16 O         140.6907  139.9784  165.5203 O.2     1  UNL1       -0.4487
     17 C         140.5685  139.1620  160.9222 C.3     1  UNL1        0.0747
     18 C         141.9916  139.1985  160.4497 C.3     1  UNL1        0.0369
     19 C         142.3261  138.7929  159.0449 C.3     1  UNL1        0.0741
     20 N         141.2374  138.3510  158.1124 N.3     1  UNL1       -0.2688
     21 C         139.8142  138.3145  158.5849 C.3     1  UNL1        0.0741
     22 C         139.4798  138.7201  159.9898 C.3     1  UNL1        0.0369
     23 C         141.5719  137.9455  156.7076 C.3     1  UNL1        0.0992
     24 C         141.8708  136.5097  156.3923 C.ar    1  UNL1       -0.0029
     25 C         141.0516  135.7802  155.3693 C.ar    1  UNL1        0.0004
     26 C         141.3505  134.3445  155.0541 C.ar    1  UNL1        0.0399
     27 C         142.4686  133.6383  155.7619 C.ar    1  UNL1        0.1764
     28 C         143.2878  134.3678  156.7850 C.ar    1  UNL1        0.1762
     29 C         142.9889  135.8035  157.1002 C.ar    1  UNL1        0.0373
     30 O         144.3191  133.4171  157.3168 O.3     1  UNL1       -0.4346
     31 C         144.1372  132.1001  156.6224 C.3     1  UNL1        0.4294
     32 O         142.9936  132.2368  155.6614 O.3     1  UNL1       -0.4346
@<TRIPOS>BOND
     1     1     2    2
     2     2     3   am
     3     3    17    1
     4    17    18    1
     5    18    19    1
     6    19    20    1
     7    20    23    1
     8    23    24    1
     9    24    25   ar
    10    25    26   ar
    11    26    27   ar
    12    27    28   ar
    13    28    29   ar
    14    28    30    1
    15    30    31    1
    16    31    32    1
    17    20    21    1
    18    21    22    1
    19     2     5    1
    20     5     6   ar
    21     6     7   ar
    22     7     8    2
    23     7     9   ar
    24     9    10   ar
    25    10    11   ar
    26    11    12   ar
    27    12    13    1
    28    12    14   ar
    29    14    15   ar
    30    15    16   ar
    31    22    17    1
    32    16     5   ar
    33    29    24   ar
    34    15     9   ar
    35    32    27    1
    36     3     4    1
@<TRIPOS>MOLECULE
*****
 32 36 0 0 0
SMALL
GASTEIGER

@<TRIPOS>ATOM
      1 O         142.5687  139.2840  159.0188 O.2     1  UNL1       -0.2668
      2 C         142.7267  137.8056  159.2173 C.2     1  UNL1        0.2806
      3 N         143.0400  137.2610  160.5794 N.am    1  UNL1       -0.2999
      4 H         143.1437  136.2907  160.7097 H       1  UNL1        0.1498
      5 C         142.5716  136.8717  158.0537 C.ar    1  UNL1        0.2014
      6 C         141.6581  137.2318  156.9197 C.ar    1  UNL1        0.0843
      7 C         141.5030  136.2981  155.7561 C.ar    1  UNL1        0.2018
      8 O         140.5895  136.6581  154.6221 O.2     1  UNL1       -0.2864
      9 C         142.2612  135.0041  155.7265 C.ar    1  UNL1        0.0736
     10 C         142.1061  134.0703  154.5630 C.ar    1  UNL1        0.0067
     11 C         142.8643  132.7765  154.5334 C.ar    1  UNL1        0.0070
     12 C         143.7778  132.4164  155.6674 C.ar    1  UNL1        0.0376
     13 BR        144.5360  131.1224  155.6378 Br      1  UNL1       -0.0489
     14 C         143.9329  133.3502  156.8310 C.ar    1  UNL1        0.0443
     15 C         143.1747  134.6440  156.8605 C.ar    1  UNL1        0.1490
     16 O         143.3298  135.5779  158.0242 O.2     1  UNL1       -0.4487
     17 C         143.1951  138.1948  161.7430 C.3     1  UNL1        0.0747
     18 C         144.2856  139.2248  161.7379 C.3     1  UNL1        0.0369
     19 C         144.4407  140.1586  162.9014 C.3     1  UNL1        0.0741
     20 N         143.5054  140.0624  164.0702 N.3     1  UNL1       -0.2688
     21 C         142.4150  139.0324  164.0754 C.3     1  UNL1        0.0741
     22 C         142.2598  138.0986  162.9117 C.3     1  UNL1        0.0369
     23 C         143.6606  140.9961  165.2338 C.3     1  UNL1        0.0992
     24 C         142.5803  141.0887  166.2704 C.ar    1  UNL1       -0.0029
     25 C         141.4543  142.0641  166.0951 C.ar    1  UNL1        0.0004
     26 C         140.3741  142.1566  167.1317 C.ar    1  UNL1        0.0399
     27 C         140.4199  141.2739  168.3436 C.ar    1  UNL1        0.1764
     28 C         141.5459  140.2986  168.5188 C.ar    1  UNL1        0.1762
     29 C         142.6261  140.2060  167.4823 C.ar    1  UNL1        0.0373
     30 O         141.3259  139.5633  169.8077 O.3     1  UNL1       -0.4346
     31 C         140.0639  140.0842  170.4289 C.3     1  UNL1        0.4294
     32 O         139.5039  141.1414  169.5240 O.3     1  UNL1       -0.4346
@<TRIPOS>BOND
     1     1     2    2
     2     2     3   am
     3     3    17    1
     4    17    18    1
     5    18    19    1
     6    19    20    1
     7    20    23    1
     8    23    24    1
     9    24    25   ar
    10    25    26   ar
    11    26    27   ar
    12    27    28   ar
    13    28    29   ar
    14    28    30    1
    15    30    31    1
    16    31    32    1
    17    20    21    1
    18    21    22    1
    19     2     5    1
    20     5     6   ar
    21     6     7   ar
    22     7     8    2
    23     7     9   ar
    24     9    10   ar
    25    10    11   ar
    26    11    12   ar
    27    12    13    1
    28    12    14   ar
    29    14    15   ar
    30    15    16   ar
    31    22    17    1
    32    16     5   ar
    33    29    24   ar
    34    15     9   ar
    35    32    27    1
    36     3     4    1
@<TRIPOS>MOLECULE
*****
 32 36 0 0 0
SMALL
GASTEIGER

@<TRIPOS>ATOM
      1 O         142.6569  139.1355  157.9519 O.2     1  UNL1       -0.2668
      2 C         142.6645  137.6845  158.3320 C.2     1  UNL1        0.2806
      3 N         142.7791  137.2876  159.7740 N.am    1  UNL1       -0.2999
      4 H         142.7842  136.3352  160.0235 H       1  UNL1        0.1498
      5 C         142.5577  136.6304  157.2702 C.ar    1  UNL1        0.2014
      6 C         141.6741  136.8531  156.0786 C.ar    1  UNL1        0.0843
      7 C         141.5672  135.7990  155.0168 C.ar    1  UNL1        0.2018
      8 O         140.6837  136.0217  153.8252 O.2     1  UNL1       -0.2864
      9 C         142.3439  134.5222  155.1465 C.ar    1  UNL1        0.0736
     10 C         142.2370  133.4682  154.0846 C.ar    1  UNL1        0.0067
     11 C         143.0136  132.1915  154.2143 C.ar    1  UNL1        0.0070
     12 C         143.8971  131.9689  155.4059 C.ar    1  UNL1        0.0376
     13 BR        144.6738  130.6921  155.5356 Br      1  UNL1       -0.0489
     14 C         144.0040  133.0229  156.4677 C.ar    1  UNL1        0.0443
     15 C         143.2274  134.2996  156.3380 C.ar    1  UNL1        0.1490
     16 O         143.3343  135.3537  157.3999 O.2     1  UNL1       -0.4487
     17 C         142.8860  138.3416  160.8359 C.3     1  UNL1        0.0747
     18 C         141.6487  138.8528  161.5124 C.3     1  UNL1        0.0369
     19 C         141.7556  139.9069  162.5742 C.3     1  UNL1        0.0741
     20 N         143.0998  140.4497  162.9596 N.3     1  UNL1       -0.2688
     21 C         144.3371  139.9384  162.2831 C.3     1  UNL1        0.0741
     22 C         144.2302  138.8843  161.2212 C.3     1  UNL1        0.0369
     23 C         143.2067  141.5037  164.0214 C.3     1  UNL1        0.0992
     24 C         143.0230  141.1363  165.4641 C.ar    1  UNL1       -0.0029
     25 C         142.9326  139.6937  165.8650 C.ar    1  UNL1        0.0004
     26 C         142.7489  139.3263  167.3077 C.ar    1  UNL1        0.0399
     27 C         142.6558  140.4015  168.3494 C.ar    1  UNL1        0.1764
     28 C         142.7462  141.8440  167.9485 C.ar    1  UNL1        0.1762
     29 C         142.9299  142.2114  166.5059 C.ar    1  UNL1        0.0373
     30 O         142.6222  142.6785  169.1889 O.3     1  UNL1       -0.4346
     31 C         142.4551  141.7516  170.3563 C.3     1  UNL1        0.4294
     32 O         142.4758  140.3443  169.8375 O.3     1  UNL1       -0.4346
@<TRIPOS>BOND
     1     1     2    2
     2     2     3   am
     3     3    17    1
     4    17    18    1
     5    18    19    1
     6    19    20    1
     7    20    23    1
     8    23    24    1
     9    24    25   ar
    10    25    26   ar
    11    26    27   ar
    12    27    28   ar
    13    28    29   ar
    14    28    30    1
    15    30    31    1
    16    31    32    1
    17    20    21    1
    18    21    22    1
    19     2     5    1
    20     5     6   ar
    21     6     7   ar
    22     7     8    2
    23     7     9   ar
    24     9    10   ar
    25    10    11   ar
    26    11    12   ar
    27    12    13    1
    28    12    14   ar
    29    14    15   ar
    30    15    16   ar
    31    22    17    1
    32    16     5   ar
    33    29    24   ar
    34    15     9   ar
    35    32    27    1
    36     3     4    1
@<TRIPOS>MOLECULE
*****
 32 36 0 0 0
SMALL
GASTEIGER

@<TRIPOS>ATOM
      1 O         141.5078  139.5502  160.8665 O.2     1  UNL1       -0.2668
      2 C         140.5816  138.6498  160.1042 C.2     1  UNL1        0.2806
      3 N         139.3832  138.0572  160.7844 N.am    1  UNL1       -0.2999
      4 H         138.7752  137.4662  160.2840 H       1  UNL1        0.1498
      5 C         140.8537  138.3419  158.6615 C.ar    1  UNL1        0.2014
      6 C         142.2672  138.2413  158.1697 C.ar    1  UNL1        0.0843
      7 C         142.5393  137.9334  156.7272 C.ar    1  UNL1        0.2018
      8 O         143.9528  137.8329  156.2354 O.2     1  UNL1       -0.2864
      9 C         141.3979  137.7260  155.7762 C.ar    1  UNL1        0.0736
     10 C         141.6700  137.4181  154.3336 C.ar    1  UNL1        0.0067
     11 C         140.5286  137.2108  153.3828 C.ar    1  UNL1        0.0070
     12 C         139.1151  137.3114  153.8745 C.ar    1  UNL1        0.0376
     13 BR        137.9736  137.1040  152.9236 Br      1  UNL1       -0.0489
     14 C         138.8429  137.6193  155.3171 C.ar    1  UNL1        0.0443
     15 C         139.9843  137.8266  156.2680 C.ar    1  UNL1        0.1490
     16 O         139.7122  138.1345  157.7106 O.2     1  UNL1       -0.4487
     17 C         139.1111  138.3651  162.2270 C.3     1  UNL1        0.0747
     18 C         138.4014  139.6321  162.6026 C.3     1  UNL1        0.0369
     19 C         138.1293  139.9400  164.0452 C.3     1  UNL1        0.0741
     20 N         138.5668  138.9808  165.1123 N.3     1  UNL1       -0.2688
     21 C         139.2764  137.7138  164.7367 C.3     1  UNL1        0.0741
     22 C         139.5485  137.4059  163.2940 C.3     1  UNL1        0.0369
     23 C         138.2947  139.2887  166.5549 C.3     1  UNL1        0.0992
     24 C         139.3707  139.8905  167.4092 C.ar    1  UNL1       -0.0029
     25 C         140.6868  140.2727  166.7994 C.ar    1  UNL1        0.0004
     26 C         141.7628  140.8745  167.6538 C.ar    1  UNL1        0.0399
     27 C         141.5228  141.0941  169.1180 C.ar    1  UNL1        0.1764
     28 C         140.2068  140.7119  169.7279 C.ar    1  UNL1        0.1762
     29 C         139.1308  140.1101  168.8735 C.ar    1  UNL1        0.0373
     30 O         140.2592  141.0448  171.1896 O.3     1  UNL1       -0.4346
     31 C         141.6075  141.6328  171.4831 C.3     1  UNL1        0.4294
     32 O         142.3885  141.6632  170.2027 O.3     1  UNL1       -0.4346
@<TRIPOS>BOND
     1     1     2    2
     2     2     3   am
     3     3    17    1
     4    17    18    1
     5    18    19    1
     6    19    20    1
     7    20    23    1
     8    23    24    1
     9    24    25   ar
    10    25    26   ar
    11    26    27   ar
    12    27    28   ar
    13    28    29   ar
    14    28    30    1
    15    30    31    1
    16    31    32    1
    17    20    21    1
    18    21    22    1
    19     2     5    1
    20     5     6   ar
    21     6     7   ar
    22     7     8    2
    23     7     9   ar
    24     9    10   ar
    25    10    11   ar
    26    11    12   ar
    27    12    13    1
    28    12    14   ar
    29    14    15   ar
    30    15    16   ar
    31    22    17    1
    32    16     5   ar
    33    29    24   ar
    34    15     9   ar
    35    32    27    1
    36     3     4    1
@<TRIPOS>MOLECULE
*****
 32 36 0 0 0
SMALL
GASTEIGER

@<TRIPOS>ATOM
      1 O         141.4064  140.2433  162.1574 O.2     1  UNL1       -0.2668
      2 C         142.6615  140.3631  162.9698 C.2     1  UNL1        0.2806
      3 N         143.9422  140.7866  162.3136 N.am    1  UNL1       -0.2999
      4 H         144.7660  140.8652  162.8469 H       1  UNL1        0.1498
      5 C         142.6361  140.0594  164.4386 C.ar    1  UNL1        0.2014
      6 C         143.5013  138.9670  164.9937 C.ar    1  UNL1        0.0843
      7 C         143.4759  138.6633  166.4624 C.ar    1  UNL1        0.2018
      8 O         144.3410  137.5709  167.0174 O.2     1  UNL1       -0.2864
      9 C         142.5852  139.4521  167.3761 C.ar    1  UNL1        0.0736
     10 C         142.5598  139.1484  168.8447 C.ar    1  UNL1        0.0067
     11 C         141.6692  139.9371  169.7583 C.ar    1  UNL1        0.0070
     12 C         140.8041  141.0295  169.2033 C.ar    1  UNL1        0.0376
     13 BR        139.9134  141.8183  170.1170 Br      1  UNL1       -0.0489
     14 C         140.8295  141.3332  167.7346 C.ar    1  UNL1        0.0443
     15 C         141.7200  140.5445  166.8210 C.ar    1  UNL1        0.1490
     16 O         141.7455  140.8481  165.3522 O.2     1  UNL1       -0.4487
     17 C         143.9677  141.0902  160.8449 C.3     1  UNL1        0.0747
     18 C         143.8046  139.9822  159.8470 C.3     1  UNL1        0.0369
     19 C         143.8301  140.2859  158.3783 C.3     1  UNL1        0.0741
     20 N         144.0186  141.6976  157.9075 N.3     1  UNL1       -0.2688
     21 C         144.1817  142.8056  158.9054 C.3     1  UNL1        0.0741
     22 C         144.1562  142.5019  160.3741 C.3     1  UNL1        0.0369
     23 C         144.0441  142.0013  156.4388 C.3     1  UNL1        0.0992
     24 C         145.3389  141.9449  155.6836 C.ar    1  UNL1       -0.0029
     25 C         145.3315  141.9015  154.1843 C.ar    1  UNL1        0.0004
     26 C         146.6263  141.8452  153.4291 C.ar    1  UNL1        0.0399
     27 C         147.9286  141.8323  154.1733 C.ar    1  UNL1        0.1764
     28 C         147.9361  141.8757  155.6726 C.ar    1  UNL1        0.1762
     29 C         146.6412  141.9320  156.4278 C.ar    1  UNL1        0.0373
     30 O         149.3645  141.8511  156.1300 O.3     1  UNL1       -0.4346
     31 C         150.2398  141.7925  154.9133 C.3     1  UNL1        0.4294
     32 O         149.3523  141.7809  153.7040 O.3     1  UNL1       -0.4346
@<TRIPOS>BOND
     1     1     2    2
     2     2     3   am
     3     3    17    1
     4    17    18    1
     5    18    19    1
     6    19    20    1
     7    20    23    1
     8    23    24    1
     9    24    25   ar
    10    25    26   ar
    11    26    27   ar
    12    27    28   ar
    13    28    29   ar
    14    28    30    1
    15    30    31    1
    16    31    32    1
    17    20    21    1
    18    21    22    1
    19     2     5    1
    20     5     6   ar
    21     6     7   ar
    22     7     8    2
    23     7     9   ar
    24     9    10   ar
    25    10    11   ar
    26    11    12   ar
    27    12    13    1
    28    12    14   ar
    29    14    15   ar
    30    15    16   ar
    31    22    17    1
    32    16     5   ar
    33    29    24   ar
    34    15     9   ar
    35    32    27    1
    36     3     4    1
@<TRIPOS>MOLECULE
*****
 32 36 0 0 0
SMALL
GASTEIGER

@<TRIPOS>ATOM
      1 O         141.2890  138.3851  159.8359 O.2     1  UNL1       -0.2668
      2 C         142.4844  138.2278  158.9435 C.2     1  UNL1        0.2806
      3 N         143.7009  139.0775  159.1626 N.am    1  UNL1       -0.2999
      4 H         144.4855  138.9743  158.5769 H       1  UNL1        0.1498
      5 C         142.4632  137.2207  157.8319 C.ar    1  UNL1        0.2014
      6 C         141.6819  137.4995  156.5822 C.ar    1  UNL1        0.0843
      7 C         141.6607  136.4925  155.4707 C.ar    1  UNL1        0.2018
      8 O         140.8794  136.7713  154.2209 O.2     1  UNL1       -0.2864
      9 C         142.4209  135.2067  155.6089 C.ar    1  UNL1        0.0736
     10 C         142.3997  134.1998  154.4973 C.ar    1  UNL1        0.0067
     11 C         143.1598  132.9141  154.6355 C.ar    1  UNL1        0.0070
     12 C         143.9411  132.6354  155.8853 C.ar    1  UNL1        0.0376
     13 BR        144.7013  131.3496  156.0235 Br      1  UNL1       -0.0489
     14 C         143.9623  133.6423  156.9968 C.ar    1  UNL1        0.0443
     15 C         143.2022  134.9280  156.8586 C.ar    1  UNL1        0.1490
     16 O         143.2234  135.9351  157.9702 O.2     1  UNL1       -0.4487
     17 C         143.7221  140.0845  160.2741 C.3     1  UNL1        0.0747
     18 C         143.4217  141.5257  159.9863 C.3     1  UNL1        0.0369
     19 C         143.4429  142.5327  161.0978 C.3     1  UNL1        0.0741
     20 N         143.7645  142.0985  162.4972 N.3     1  UNL1       -0.2688
     21 C         144.0649  140.6574  162.7850 C.3     1  UNL1        0.0741
     22 C         144.0437  139.6504  161.6734 C.3     1  UNL1        0.0369
     23 C         143.7857  143.1055  163.6087 C.3     1  UNL1        0.0992
     24 C         142.9444  142.8904  164.8318 C.ar    1  UNL1       -0.0029
     25 C         141.4747  143.1875  164.7928 C.ar    1  UNL1        0.0004
     26 C         140.6334  142.9724  166.0159 C.ar    1  UNL1        0.0399
     27 C         141.2618  142.4602  167.2779 C.ar    1  UNL1        0.1764
     28 C         142.7315  142.1632  167.3169 C.ar    1  UNL1        0.1762
     29 C         143.5729  142.3783  166.0938 C.ar    1  UNL1        0.0373
     30 O         143.0689  141.6721  168.6935 O.3     1  UNL1       -0.4346
     31 C         141.8076  141.6656  169.5053 C.3     1  UNL1        0.4294
     32 O         140.6908  142.1527  168.6304 O.3     1  UNL1       -0.4346
@<TRIPOS>BOND
     1     1     2    2
     2     2     3   am
     3     3    17    1
     4    17    18    1
     5    18    19    1
     6    19    20    1
     7    20    23    1
     8    23    24    1
     9    24    25   ar
    10    25    26   ar
    11    26    27   ar
    12    27    28   ar
    13    28    29   ar
    14    28    30    1
    15    30    31    1
    16    31    32    1
    17    20    21    1
    18    21    22    1
    19     2     5    1
    20     5     6   ar
    21     6     7   ar
    22     7     8    2
    23     7     9   ar
    24     9    10   ar
    25    10    11   ar
    26    11    12   ar
    27    12    13    1
    28    12    14   ar
    29    14    15   ar
    30    15    16   ar
    31    22    17    1
    32    16     5   ar
    33    29    24   ar
    34    15     9   ar
    35    32    27    1
    36     3     4    1
@<TRIPOS>MOLECULE
*****
 32 36 0 0 0
SMALL
GASTEIGER

@<TRIPOS>ATOM
      1 O         142.0363  138.4059  162.4654 O.2     1  UNL1       -0.2668
      2 C         141.3258  139.7249  162.3930 C.2     1  UNL1        0.2806
      3 N         140.8402  140.2437  161.0721 N.am    1  UNL1       -0.2999
      4 H         140.3738  141.1095  161.0246 H       1  UNL1        0.1498
      5 C         141.1009  140.5252  163.6417 C.ar    1  UNL1        0.2014
      6 C         140.8730  142.0051  163.5531 C.ar    1  UNL1        0.0843
      7 C         140.6481  142.8054  164.8017 C.ar    1  UNL1        0.2018
      8 O         140.4202  144.2853  164.7131 O.2     1  UNL1       -0.2864
      9 C         140.6511  142.1257  166.1389 C.ar    1  UNL1        0.0736
     10 C         140.4262  142.9260  167.3874 C.ar    1  UNL1        0.0067
     11 C         140.4292  142.2463  168.7246 C.ar    1  UNL1        0.0070
     12 C         140.6571  140.7664  168.8132 C.ar    1  UNL1        0.0376
     13 BR        140.6601  140.0867  170.1504 Br      1  UNL1       -0.0489
     14 C         140.8820  139.9661  167.5646 C.ar    1  UNL1        0.0443
     15 C         140.8790  140.6458  166.2275 C.ar    1  UNL1        0.1490
     16 O         141.1039  139.8455  164.9788 O.2     1  UNL1       -0.4487
     17 C         141.0650  139.4435  159.8234 C.3     1  UNL1        0.0747
     18 C         139.9149  138.7398  159.1663 C.3     1  UNL1        0.0369
     19 C         140.1397  137.9396  157.9177 C.3     1  UNL1        0.0741
     20 N         141.5148  137.8431  157.3261 N.3     1  UNL1       -0.2688
     21 C         142.6650  138.5469  157.9833 C.3     1  UNL1        0.0741
     22 C         142.4401  139.3471  159.2320 C.3     1  UNL1        0.0369
     23 C         141.7397  137.0429  156.0775 C.3     1  UNL1        0.0992
     24 C         142.1161  135.5941  156.1729 C.ar    1  UNL1       -0.0029
     25 C         141.3734  134.5715  155.3650 C.ar    1  UNL1        0.0004
     26 C         141.7499  133.1226  155.4603 C.ar    1  UNL1        0.0399
     27 C         142.8690  132.6964  156.3635 C.ar    1  UNL1        0.1764
     28 C         143.6117  133.7189  157.1713 C.ar    1  UNL1        0.1762
     29 C         143.2353  135.1678  157.0760 C.ar    1  UNL1        0.0373
     30 O         144.6625  133.0053  157.9693 O.3     1  UNL1       -0.4346
     31 C         144.5692  131.5417  157.6546 C.3     1  UNL1        0.4294
     32 O         143.4608  131.3508  156.6621 O.3     1  UNL1       -0.4346
@<TRIPOS>BOND
     1     1     2    2
     2     2     3   am
     3     3    17    1
     4    17    18    1
     5    18    19    1
     6    19    20    1
     7    20    23    1
     8    23    24    1
     9    24    25   ar
    10    25    26   ar
    11    26    27   ar
    12    27    28   ar
    13    28    29   ar
    14    28    30    1
    15    30    31    1
    16    31    32    1
    17    20    21    1
    18    21    22    1
    19     2     5    1
    20     5     6   ar
    21     6     7   ar
    22     7     8    2
    23     7     9   ar
    24     9    10   ar
    25    10    11   ar
    26    11    12   ar
    27    12    13    1
    28    12    14   ar
    29    14    15   ar
    30    15    16   ar
    31    22    17    1
    32    16     5   ar
    33    29    24   ar
    34    15     9   ar
    35    32    27    1
    36     3     4    1
@<TRIPOS>MOLECULE
*****
 32 36 0 0 0
SMALL
GASTEIGER

@<TRIPOS>ATOM
      1 O         141.0428  140.0285  162.0607 O.2     1  UNL1       -0.2668
      2 C         142.2850  139.5775  162.7704 C.2     1  UNL1        0.2806
      3 N         143.4336  139.0142  161.9872 N.am    1  UNL1       -0.2999
      4 H         144.2489  138.7182  162.4530 H       1  UNL1        0.1498
      5 C         142.3786  139.6898  164.2633 C.ar    1  UNL1        0.2014
      6 C         143.1593  138.6747  165.0443 C.ar    1  UNL1        0.0843
      7 C         143.2529  138.7870  166.5371 C.ar    1  UNL1        0.2018
      8 O         144.0336  137.7718  167.3181 O.2     1  UNL1       -0.2864
      9 C         142.5657  139.9144  167.2490 C.ar    1  UNL1        0.0736
     10 C         142.6593  140.0267  168.7418 C.ar    1  UNL1        0.0067
     11 C         141.9722  141.1541  169.4537 C.ar    1  UNL1        0.0070
     12 C         141.1915  142.1693  168.6727 C.ar    1  UNL1        0.0376
     13 BR        140.5044  143.2967  169.3846 Br      1  UNL1       -0.0489
     14 C         141.0979  142.0570  167.1798 C.ar    1  UNL1        0.0443
     15 C         141.7850  140.9296  166.4680 C.ar    1  UNL1        0.1490
     16 O         141.6914  140.8172  164.9751 O.2     1  UNL1       -0.4487
     17 C         143.3401  138.9019  160.4944 C.3     1  UNL1        0.0747
     18 C         143.7174  140.0678  159.6294 C.3     1  UNL1        0.0369
     19 C         143.6239  139.9554  158.1366 C.3     1  UNL1        0.0741
     20 N         143.1530  138.6771  157.5086 N.3     1  UNL1       -0.2688
     21 C         142.7756  137.5112  158.3736 C.3     1  UNL1        0.0741
     22 C         142.8692  137.6236  159.8665 C.3     1  UNL1        0.0369
     23 C         143.0595  138.5648  156.0158 C.3     1  UNL1        0.0992
     24 C         141.7678  138.1527  155.3741 C.ar    1  UNL1       -0.0029
     25 C         141.7571  137.0663  154.3400 C.ar    1  UNL1        0.0004
     26 C         140.4654  136.6542  153.6984 C.ar    1  UNL1        0.0399
     27 C         139.1844  137.3286  154.0908 C.ar    1  UNL1        0.1764
     28 C         139.1951  138.4151  155.1249 C.ar    1  UNL1        0.1762
     29 C         140.4867  138.8271  155.7666 C.ar    1  UNL1        0.0373
     30 O         137.7856  138.8950  155.3077 O.3     1  UNL1       -0.4346
     31 C         136.9039  138.1050  154.3865 C.3     1  UNL1        0.4294
     32 O         137.7684  137.1370  153.6344 O.3     1  UNL1       -0.4346
@<TRIPOS>BOND
     1     1     2    2
     2     2     3   am
     3     3    17    1
     4    17    18    1
     5    18    19    1
     6    19    20    1
     7    20    23    1
     8    23    24    1
     9    24    25   ar
    10    25    26   ar
    11    26    27   ar
    12    27    28   ar
    13    28    29   ar
    14    28    30    1
    15    30    31    1
    16    31    32    1
    17    20    21    1
    18    21    22    1
    19     2     5    1
    20     5     6   ar
    21     6     7   ar
    22     7     8    2
    23     7     9   ar
    24     9    10   ar
    25    10    11   ar
    26    11    12   ar
    27    12    13    1
    28    12    14   ar
    29    14    15   ar
    30    15    16   ar
    31    22    17    1
    32    16     5   ar
    33    29    24   ar
    34    15     9   ar
    35    32    27    1
    36     3     4    1
@<TRIPOS>MOLECULE
*****
 32 36 0 0 0
SMALL
GASTEIGER

@<TRIPOS>ATOM
      1 O         144.9075  142.4982  160.3564 O.2     1  UNL1       -0.2668
      2 C         144.0382  142.6567  159.1443 C.2     1  UNL1        0.2806
      3 N         142.5657  142.8945  159.3032 N.am    1  UNL1       -0.2999
      4 H         141.9952  142.9986  158.5076 H       1  UNL1        0.1498
      5 C         144.6414  142.5774  157.7732 C.ar    1  UNL1        0.2014
      6 C         143.7655  142.6903  156.5608 C.ar    1  UNL1        0.0843
      7 C         144.3686  142.6110  155.1897 C.ar    1  UNL1        0.2018
      8 O         143.4926  142.7238  153.9773 O.2     1  UNL1       -0.2864
      9 C         145.8478  142.4188  155.0310 C.ar    1  UNL1        0.0736
     10 C         146.4509  142.3395  153.6599 C.ar    1  UNL1        0.0067
     11 C         147.9301  142.1474  153.5012 C.ar    1  UNL1        0.0070
     12 C         148.8061  142.0345  154.7136 C.ar    1  UNL1        0.0376
     13 BR        150.2853  141.8424  154.5549 Br      1  UNL1       -0.0489
     14 C         148.2029  142.1138  156.0847 C.ar    1  UNL1        0.0443
     15 C         146.7238  142.3060  156.2434 C.ar    1  UNL1        0.1490
     16 O         146.1206  142.3853  157.6145 O.2     1  UNL1       -0.4487
     17 C         141.9625  142.9739  160.6742 C.3     1  UNL1        0.0747
     18 C         141.2849  141.7736  161.2661 C.3     1  UNL1        0.0369
     19 C         140.6816  141.8529  162.6371 C.3     1  UNL1        0.0741
     20 N         140.7560  143.1325  163.4164 N.3     1  UNL1       -0.2688
     21 C         141.4336  144.3328  162.8245 C.3     1  UNL1        0.0741
     22 C         142.0369  144.2534  161.4534 C.3     1  UNL1        0.0369
     23 C         140.1528  143.2118  164.7874 C.3     1  UNL1        0.0992
     24 C         140.9818  142.8779  165.9920 C.ar    1  UNL1       -0.0029
     25 C         142.4420  142.5721  165.8362 C.ar    1  UNL1        0.0004
     26 C         143.2710  142.2381  167.0409 C.ar    1  UNL1        0.0399
     27 C         142.6399  142.2100  168.4013 C.ar    1  UNL1        0.1764
     28 C         141.1798  142.5159  168.5571 C.ar    1  UNL1        0.1762
     29 C         140.3507  142.8498  167.3525 C.ar    1  UNL1        0.0373
     30 O         140.8371  142.4116  170.0138 O.3     1  UNL1       -0.4346
     31 C         142.0856  142.0413  170.7582 C.3     1  UNL1        0.4294
     32 O         143.1998  141.9167  169.7617 O.3     1  UNL1       -0.4346
@<TRIPOS>BOND
     1     1     2    2
     2     2     3   am
     3     3    17    1
     4    17    18    1
     5    18    19    1
     6    19    20    1
     7    20    23    1
     8    23    24    1
     9    24    25   ar
    10    25    26   ar
    11    26    27   ar
    12    27    28   ar
    13    28    29   ar
    14    28    30    1
    15    30    31    1
    16    31    32    1
    17    20    21    1
    18    21    22    1
    19     2     5    1
    20     5     6   ar
    21     6     7   ar
    22     7     8    2
    23     7     9   ar
    24     9    10   ar
    25    10    11   ar
    26    11    12   ar
    27    12    13    1
    28    12    14   ar
    29    14    15   ar
    30    15    16   ar
    31    22    17    1
    32    16     5   ar
    33    29    24   ar
    34    15     9   ar
    35    32    27    1
    36     3     4    1
