@<TRIPOS>MOLECULE
*****
 40 43 0 0 0
SMALL
GASTEIGER

@<TRIPOS>ATOM
      1 O         138.7011  139.7463  161.0171 O.3     1  UNL1       -0.4725
      2 C         138.8413  141.4000  163.0159 C.ar    1  UNL1        0.0874
      3 C         138.8426  141.6539  164.4943 C.ar    1  UNL1        0.0107
      4 C         138.7049  140.5078  165.4522 C.ar    1  UNL1        0.0370
      5 C         138.5660  139.1079  164.9317 C.ar    1  UNL1        0.1367
      6 O         138.4284  137.9618  165.8895 O.3     1  UNL1       -0.5054
      7 C         138.5647  138.8540  163.4534 C.ar    1  UNL1        0.0736
      8 C         138.7024  140.0001  162.4954 C.ar    1  UNL1        0.1460
      9 H         138.4292  138.1203  166.8130 H       1  UNL1        0.2922
     10 N         140.1721  142.6277  161.1526 N.am    1  UNL1       -0.2991
     11 C         138.9790  142.5461  162.0581 C.2     1  UNL1        0.2488
     12 O         137.9236  143.6107  162.0057 O.2     1  UNL1       -0.2700
     13 H         140.8648  141.9289  161.1869 H       1  UNL1        0.1498
     14 C         140.3097  143.7737  160.1947 C.3     1  UNL1        0.1109
     15 C         141.0710  145.0015  160.5986 C.3     1  UNL1        0.1107
     16 C         143.2537  144.8600  163.9101 C.3     1  UNL1        0.0946
     17 C         142.0695  144.9783  162.9971 C.2     1  UNL1        0.2230
     18 O         140.6995  145.1920  163.5694 O.2     1  UNL1       -0.2751
     19 N         142.2553  144.8831  161.5117 N.am    1  UNL1       -0.3026
     20 H         143.1544  144.7429  161.1360 H       1  UNL1        0.1495
     21 C         139.4244  138.5562  160.4599 C.3     1  UNL1        0.2358
     22 C         140.8500  138.6871  160.0119 C.3     1  UNL1        0.1700
     23 O         141.1661  139.3309  158.6945 O.3     1  UNL1       -0.3793
     24 H         140.3419  139.6042  158.2621 H       1  UNL1        0.2106
     25 C         141.9595  138.1742  160.8813 C.3     1  UNL1        0.1056
     26 N         142.0956  138.6661  162.2919 N.3     1  UNL1       -0.2703
     27 C         141.9718  137.7049  163.4367 C.3     1  UNL1        0.0758
     28 C         142.1079  138.1968  164.8471 C.3     1  UNL1        0.0577
     29 C         142.3677  139.6501  165.1128 C.3     1  UNL1        0.1399
     30 C         142.4916  140.6113  163.9680 C.3     1  UNL1        0.0577
     31 C         142.3555  140.1194  162.5575 C.3     1  UNL1        0.0758
     32 C         142.6270  141.0670  165.5312 C.3     1  UNL1        0.0695
     33 C         142.6879  141.1041  167.0296 C.ar    1  UNL1        0.0161
     34 C         142.9165  142.2272  167.9973 C.ar    1  UNL1        0.0102
     35 C         142.9236  141.9562  169.4726 C.ar    1  UNL1        0.0576
     36 CL        143.1522  143.0792  170.4403 Cl      1  UNL1       -0.0823
     37 C         142.7021  140.5622  169.9802 C.ar    1  UNL1        0.0145
     38 C         142.4735  139.4391  169.0125 C.ar    1  UNL1        0.0374
     39 C         142.4664  139.7101  167.5372 C.ar    1  UNL1        0.1343
     40 O         142.2685  138.8114  166.3526 O.3     1  UNL1       -0.4825
@<TRIPOS>BOND
     1    16    17    1
     2    17    18    2
     3    17    19   am
     4    19    15    1
     5    15    14    1
     6    14    10    1
     7    10    11   am
     8    11    12    2
     9    11     2    1
    10     2     3   ar
    11     3     4   ar
    12     4     5   ar
    13     5     6    1
    14     5     7   ar
    15     7     8   ar
    16     8     1    1
    17     1    21    1
    18    21    22    1
    19    22    23    1
    20    22    25    1
    21    25    26    1
    22    26    27    1
    23    27    28    1
    24    28    29    1
    25    29    30    1
    26    30    31    1
    27    29    32    1
    28    32    33    1
    29    33    34   ar
    30    34    35   ar
    31    35    36    1
    32    35    37   ar
    33    37    38   ar
    34    38    39   ar
    35    39    40    1
    36     8     2   ar
    37    31    26    1
    38    39    33   ar
    39    40    29    1
    40    19    20    1
    41    10    13    1
    42     6     9    1
    43    23    24    1
@<TRIPOS>MOLECULE
*****
 40 43 0 0 0
SMALL
GASTEIGER

@<TRIPOS>ATOM
      1 O         140.3678  139.6547  160.9975 O.3     1  UNL1       -0.4725
      2 C         138.9685  141.0213  162.7075 C.ar    1  UNL1        0.0874
      3 C         138.2451  141.1096  164.0187 C.ar    1  UNL1        0.0107
      4 C         138.1977  139.9198  164.9307 C.ar    1  UNL1        0.0370
      5 C         138.8737  138.6415  164.5317 C.ar    1  UNL1        0.1367
      6 O         138.8262  137.4516  165.4438 O.3     1  UNL1       -0.5054
      7 C         139.5970  138.5531  163.2207 C.ar    1  UNL1        0.0736
      8 C         139.6445  139.7431  162.3085 C.ar    1  UNL1        0.1460
      9 H         138.3744  137.5068  166.2627 H       1  UNL1        0.2922
     10 N         140.3194  142.6407  161.1901 N.am    1  UNL1       -0.2991
     11 C         139.0160  142.2112  161.7955 C.2     1  UNL1        0.2488
     12 O         137.7599  142.9716  161.4888 O.2     1  UNL1       -0.2700
     13 H         141.1438  142.1416  161.3913 H       1  UNL1        0.1498
     14 C         140.3669  143.8305  160.2780 C.3     1  UNL1        0.1109
     15 C         140.8813  145.1448  160.7859 C.3     1  UNL1        0.1107
     16 C         143.3612  144.9692  163.8794 C.3     1  UNL1        0.0946
     17 C         142.0995  144.9200  163.0697 C.2     1  UNL1        0.2230
     18 O         140.7940  144.5969  163.7342 O.2     1  UNL1       -0.2751
     19 N         142.1431  145.1940  161.5956 N.am    1  UNL1       -0.3026
     20 H         142.9999  145.4061  161.1595 H       1  UNL1        0.1495
     21 C         141.4195  138.6054  160.7904 C.3     1  UNL1        0.2358
     22 C         142.8370  139.0089  160.5113 C.3     1  UNL1        0.1700
     23 O         143.3341  139.0725  159.0975 O.3     1  UNL1       -0.3793
     24 H         142.6184  138.8244  158.4916 H       1  UNL1        0.2106
     25 C         143.7573  139.3489  161.6459 C.3     1  UNL1        0.1056
     26 N         143.1924  139.6983  162.9909 N.3     1  UNL1       -0.2703
     27 C         143.0647  138.6419  164.0481 C.3     1  UNL1        0.0758
     28 C         142.4999  138.9913  165.3930 C.3     1  UNL1        0.0577
     29 C         142.0628  140.3971  165.6807 C.3     1  UNL1        0.1399
     30 C         142.1905  141.4534  164.6235 C.3     1  UNL1        0.0577
     31 C         142.7553  141.1040  163.2786 C.3     1  UNL1        0.0758
     32 C         141.5862  141.7525  166.1119 C.3     1  UNL1        0.0695
     33 C         141.1042  141.6455  167.5283 C.ar    1  UNL1        0.0161
     34 C         140.5257  142.6588  168.4710 C.ar    1  UNL1        0.0102
     35 C         140.1259  142.2506  169.8579 C.ar    1  UNL1        0.0576
     36 CL        139.5474  143.2639  170.8005 Cl      1  UNL1       -0.0823
     37 C         140.3045  140.8291  170.3022 C.ar    1  UNL1        0.0145
     38 C         140.8830  139.8157  169.3595 C.ar    1  UNL1        0.0374
     39 C         141.2829  140.2239  167.9726 C.ar    1  UNL1        0.1343
     40 O         141.8753  139.4524  166.8308 O.3     1  UNL1       -0.4825
@<TRIPOS>BOND
     1    16    17    1
     2    17    18    2
     3    17    19   am
     4    19    15    1
     5    15    14    1
     6    14    10    1
     7    10    11   am
     8    11    12    2
     9    11     2    1
    10     2     3   ar
    11     3     4   ar
    12     4     5   ar
    13     5     6    1
    14     5     7   ar
    15     7     8   ar
    16     8     1    1
    17     1    21    1
    18    21    22    1
    19    22    23    1
    20    22    25    1
    21    25    26    1
    22    26    27    1
    23    27    28    1
    24    28    29    1
    25    29    30    1
    26    30    31    1
    27    29    32    1
    28    32    33    1
    29    33    34   ar
    30    34    35   ar
    31    35    36    1
    32    35    37   ar
    33    37    38   ar
    34    38    39   ar
    35    39    40    1
    36     8     2   ar
    37    31    26    1
    38    39    33   ar
    39    40    29    1
    40    19    20    1
    41    10    13    1
    42     6     9    1
    43    23    24    1
@<TRIPOS>MOLECULE
*****
 40 43 0 0 0
SMALL
GASTEIGER

@<TRIPOS>ATOM
      1 O         142.7066  142.0234  159.9295 O.3     1  UNL1       -0.4725
      2 C         142.3568  142.8414  162.3705 C.ar    1  UNL1        0.0874
      3 C         142.8914  143.0694  163.7534 C.ar    1  UNL1        0.0107
      4 C         144.3104  142.7073  164.0780 C.ar    1  UNL1        0.0370
      5 C         145.1948  142.1173  163.0198 C.ar    1  UNL1        0.1367
      6 O         146.6137  141.7552  163.3445 O.3     1  UNL1       -0.5054
      7 C         144.6602  141.8893  161.6370 C.ar    1  UNL1        0.0736
      8 C         143.2412  142.2513  161.3123 C.ar    1  UNL1        0.1460
      9 H         146.9477  141.8976  164.2083 H       1  UNL1        0.2922
     10 N         139.9370  142.1253  161.7524 N.am    1  UNL1       -0.2991
     11 C         140.9378  143.2035  162.0458 C.2     1  UNL1        0.2488
     12 O         140.5197  144.6436  162.0146 O.2     1  UNL1       -0.2700
     13 H         140.2115  141.1801  161.7728 H       1  UNL1        0.1498
     14 C         138.5181  142.4874  161.4277 C.3     1  UNL1        0.1109
     15 C         137.5335  142.7274  162.5336 C.3     1  UNL1        0.1107
     16 C         138.7687  144.9384  165.5891 C.3     1  UNL1        0.0946
     17 C         138.5898  143.7694  164.6663 C.2     1  UNL1        0.2230
     18 O         139.2884  142.4734  164.9534 O.2     1  UNL1       -0.2751
     19 N         137.7123  143.8965  163.4564 N.am    1  UNL1       -0.3026
     20 H         137.2538  144.7470  163.2679 H       1  UNL1        0.1495
     21 C         142.1322  140.6884  159.5582 C.3     1  UNL1        0.2358
     22 C         143.0273  139.4891  159.4552 C.3     1  UNL1        0.1700
     23 O         144.0517  139.4095  158.3623 O.3     1  UNL1       -0.3793
     24 H         144.0029  140.2086  157.8146 H       1  UNL1        0.2106
     25 C         142.8980  138.3695  160.4450 C.3     1  UNL1        0.1056
     26 N         142.5727  138.6694  161.8783 N.3     1  UNL1       -0.2703
     27 C         141.1430  138.8107  162.3092 C.3     1  UNL1        0.0758
     28 C         140.8178  139.1106  163.7425 C.3     1  UNL1        0.0577
     29 C         141.9224  139.2692  164.7448 C.3     1  UNL1        0.1399
     30 C         143.3521  139.1279  164.3140 C.3     1  UNL1        0.0577
     31 C         143.6773  138.8280  162.8807 C.3     1  UNL1        0.0758
     32 C         142.9150  139.4535  165.8542 C.3     1  UNL1        0.0695
     33 C         142.1535  139.7356  167.1155 C.ar    1  UNL1        0.0161
     34 C         142.6034  140.0003  168.5217 C.ar    1  UNL1        0.0102
     35 C         141.5902  140.2550  169.5980 C.ar    1  UNL1        0.0576
     36 CL        142.0401  140.5197  171.0042 Cl      1  UNL1       -0.0823
     37 C         140.1270  140.2451  169.2681 C.ar    1  UNL1        0.0145
     38 C         139.6770  139.9804  167.8618 C.ar    1  UNL1        0.0374
     39 C         140.6902  139.7257  166.7855 C.ar    1  UNL1        0.1343
     40 O         140.5474  139.4374  165.3205 O.3     1  UNL1       -0.4825
@<TRIPOS>BOND
     1    16    17    1
     2    17    18    2
     3    17    19   am
     4    19    15    1
     5    15    14    1
     6    14    10    1
     7    10    11   am
     8    11    12    2
     9    11     2    1
    10     2     3   ar
    11     3     4   ar
    12     4     5   ar
    13     5     6    1
    14     5     7   ar
    15     7     8   ar
    16     8     1    1
    17     1    21    1
    18    21    22    1
    19    22    23    1
    20    22    25    1
    21    25    26    1
    22    26    27    1
    23    27    28    1
    24    28    29    1
    25    29    30    1
    26    30    31    1
    27    29    32    1
    28    32    33    1
    29    33    34   ar
    30    34    35   ar
    31    35    36    1
    32    35    37   ar
    33    37    38   ar
    34    38    39   ar
    35    39    40    1
    36     8     2   ar
    37    31    26    1
    38    39    33   ar
    39    40    29    1
    40    19    20    1
    41    10    13    1
    42     6     9    1
    43    23    24    1
@<TRIPOS>MOLECULE
*****
 40 43 0 0 0
SMALL
GASTEIGER

@<TRIPOS>ATOM
      1 O         141.5488  140.8034  159.2042 O.3     1  UNL1       -0.4725
      2 C         140.1043  141.0867  161.3450 C.ar    1  UNL1        0.0874
      3 C         139.5789  140.5402  162.6394 C.ar    1  UNL1        0.0107
      4 C         139.9727  139.1639  163.0873 C.ar    1  UNL1        0.0370
      5 C         140.8919  138.3340  162.2408 C.ar    1  UNL1        0.1367
      6 O         141.2857  136.9577  162.6886 O.3     1  UNL1       -0.5054
      7 C         141.4173  138.8805  160.9465 C.ar    1  UNL1        0.0736
      8 C         141.0234  140.2569  160.4985 C.ar    1  UNL1        0.1460
      9 H         140.9576  136.6163  163.4972 H       1  UNL1        0.2922
     10 N         140.7292  143.5638  160.8719 N.am    1  UNL1       -0.2991
     11 C         139.7104  142.4631  160.8972 C.2     1  UNL1        0.2488
     12 O         138.2979  142.7387  160.4745 O.2     1  UNL1       -0.2700
     13 H         141.6563  143.3828  161.1494 H       1  UNL1        0.1498
     14 C         140.3354  144.9401  160.4241 C.3     1  UNL1        0.1109
     15 C         139.9485  145.9764  161.4372 C.3     1  UNL1        0.1107
     16 C         138.9474  144.6784  165.0514 C.3     1  UNL1        0.0946
     17 C         138.8697  144.9951  163.5874 C.2     1  UNL1        0.2230
     18 O         137.6353  144.6472  162.8092 O.2     1  UNL1       -0.2751
     19 N         140.0263  145.6597  162.9013 N.am    1  UNL1       -0.3026
     20 H         140.8364  145.8881  163.4120 H       1  UNL1        0.1495
     21 C         143.0165  141.0666  159.0420 C.3     1  UNL1        0.2358
     22 C         143.6464  142.2467  159.7209 C.3     1  UNL1        0.1700
     23 O         143.4185  143.6294  159.1860 O.3     1  UNL1       -0.3793
     24 H         142.8458  143.5834  158.4045 H       1  UNL1        0.2106
     25 C         144.5041  142.0440  160.9346 C.3     1  UNL1        0.1056
     26 N         143.8695  141.9031  162.2865 N.3     1  UNL1       -0.2703
     27 C         143.9240  140.5889  163.0074 C.3     1  UNL1        0.0758
     28 C         143.2894  140.4481  164.3592 C.3     1  UNL1        0.0577
     29 C         142.6003  141.6216  164.9901 C.3     1  UNL1        0.1399
     30 C         142.5458  142.9358  164.2692 C.3     1  UNL1        0.0577
     31 C         143.1804  143.0766  162.9174 C.3     1  UNL1        0.0758
     32 C         141.8799  142.7008  165.7426 C.3     1  UNL1        0.0695
     33 C         141.4090  142.1231  167.0444 C.ar    1  UNL1        0.0161
     34 C         140.6448  142.7193  168.1892 C.ar    1  UNL1        0.0102
     35 C         140.3098  141.8792  169.3859 C.ar    1  UNL1        0.0576
     36 CL        139.5456  142.4754  170.5306 Cl      1  UNL1       -0.0823
     37 C         140.7392  140.4429  169.4378 C.ar    1  UNL1        0.0145
     38 C         141.5034  139.8466  168.2931 C.ar    1  UNL1        0.0374
     39 C         141.8384  140.6867  167.0964 C.ar    1  UNL1        0.1343
     40 O         142.5746  140.3768  165.8268 O.3     1  UNL1       -0.4825
@<TRIPOS>BOND
     1    16    17    1
     2    17    18    2
     3    17    19   am
     4    19    15    1
     5    15    14    1
     6    14    10    1
     7    10    11   am
     8    11    12    2
     9    11     2    1
    10     2     3   ar
    11     3     4   ar
    12     4     5   ar
    13     5     6    1
    14     5     7   ar
    15     7     8   ar
    16     8     1    1
    17     1    21    1
    18    21    22    1
    19    22    23    1
    20    22    25    1
    21    25    26    1
    22    26    27    1
    23    27    28    1
    24    28    29    1
    25    29    30    1
    26    30    31    1
    27    29    32    1
    28    32    33    1
    29    33    34   ar
    30    34    35   ar
    31    35    36    1
    32    35    37   ar
    33    37    38   ar
    34    38    39   ar
    35    39    40    1
    36     8     2   ar
    37    31    26    1
    38    39    33   ar
    39    40    29    1
    40    19    20    1
    41    10    13    1
    42     6     9    1
    43    23    24    1
@<TRIPOS>MOLECULE
*****
 40 43 0 0 0
SMALL
GASTEIGER

@<TRIPOS>ATOM
      1 O         139.4896  143.6794  160.3340 O.3     1  UNL1       -0.4725
      2 C         140.9350  143.5705  162.4901 C.ar    1  UNL1        0.0874
      3 C         141.0443  143.6270  163.9851 C.ar    1  UNL1        0.0107
      4 C         139.8173  143.8490  164.8188 C.ar    1  UNL1        0.0370
      5 C         138.4811  144.0145  164.1577 C.ar    1  UNL1        0.1367
      6 O         137.2541  144.2365  164.9915 O.3     1  UNL1       -0.5054
      7 C         138.3718  143.9580  162.6628 C.ar    1  UNL1        0.0736
      8 C         139.5988  143.7360  161.8289 C.ar    1  UNL1        0.1460
      9 H         137.3223  144.2718  165.9253 H       1  UNL1        0.2922
     10 N         142.1556  142.3097  160.5742 N.am    1  UNL1       -0.2991
     11 C         142.1620  143.3485  161.6563 C.2     1  UNL1        0.2488
     12 O         143.3954  144.1652  161.9047 O.2     1  UNL1       -0.2700
     13 H         141.3461  141.7737  160.4112 H       1  UNL1        0.1498
     14 C         143.3826  142.0877  159.7404 C.3     1  UNL1        0.1109
     15 C         144.2967  140.9375  160.0426 C.3     1  UNL1        0.1107
     16 C         144.5867  139.6834  163.7967 C.3     1  UNL1        0.0946
     17 C         144.7929  140.4991  162.5549 C.2     1  UNL1        0.2230
     18 O         145.7017  141.6922  162.5836 O.2     1  UNL1       -0.2751
     19 N         144.0904  140.1217  161.2845 N.am    1  UNL1       -0.3026
     20 H         143.4940  139.3387  161.2656 H       1  UNL1        0.1495
     21 C         138.6235  142.6414  159.6841 C.3     1  UNL1        0.2358
     22 C         139.0680  141.2092  159.6481 C.3     1  UNL1        0.1700
     23 O         140.1136  140.7730  158.6651 O.3     1  UNL1       -0.3793
     24 H         140.3941  141.5336  158.1325 H       1  UNL1        0.2106
     25 C         138.4669  140.2133  160.5951 C.3     1  UNL1        0.1056
     26 N         138.9410  140.1493  162.0168 N.3     1  UNL1       -0.2703
     27 C         140.3819  139.8572  162.3144 C.3     1  UNL1        0.0758
     28 C         140.8560  139.7932  163.7360 C.3     1  UNL1        0.0577
     29 C         139.8892  140.0213  164.8600 C.3     1  UNL1        0.1399
     30 C         138.4484  140.3135  164.5624 C.3     1  UNL1        0.0577
     31 C         137.9743  140.3775  163.1408 C.3     1  UNL1        0.0758
     32 C         139.0434  140.2267  166.0817 C.3     1  UNL1        0.0695
     33 C         139.9239  140.0730  167.2864 C.ar    1  UNL1        0.0161
     34 C         139.6395  140.1678  168.7561 C.ar    1  UNL1        0.0102
     35 C         140.7451  139.9622  169.7487 C.ar    1  UNL1        0.0576
     36 CL        140.4607  140.0569  171.2184 Cl      1  UNL1       -0.0823
     37 C         142.1351  139.6618  169.2717 C.ar    1  UNL1        0.0145
     38 C         142.4195  139.5670  167.8019 C.ar    1  UNL1        0.0374
     39 C         141.3139  139.7727  166.8092 C.ar    1  UNL1        0.1343
     40 O         141.2925  139.7407  165.3097 O.3     1  UNL1       -0.4825
@<TRIPOS>BOND
     1    16    17    1
     2    17    18    2
     3    17    19   am
     4    19    15    1
     5    15    14    1
     6    14    10    1
     7    10    11   am
     8    11    12    2
     9    11     2    1
    10     2     3   ar
    11     3     4   ar
    12     4     5   ar
    13     5     6    1
    14     5     7   ar
    15     7     8   ar
    16     8     1    1
    17     1    21    1
    18    21    22    1
    19    22    23    1
    20    22    25    1
    21    25    26    1
    22    26    27    1
    23    27    28    1
    24    28    29    1
    25    29    30    1
    26    30    31    1
    27    29    32    1
    28    32    33    1
    29    33    34   ar
    30    34    35   ar
    31    35    36    1
    32    35    37   ar
    33    37    38   ar
    34    38    39   ar
    35    39    40    1
    36     8     2   ar
    37    31    26    1
    38    39    33   ar
    39    40    29    1
    40    19    20    1
    41    10    13    1
    42     6     9    1
    43    23    24    1
@<TRIPOS>MOLECULE
*****
 40 43 0 0 0
SMALL
GASTEIGER

@<TRIPOS>ATOM
      1 O         141.6977  142.7391  160.0083 O.3     1  UNL1       -0.4725
      2 C         140.0533  142.6168  162.0160 C.ar    1  UNL1        0.0874
      3 C         139.5685  143.1481  163.3324 C.ar    1  UNL1        0.0107
      4 C         140.2434  144.3330  163.9573 C.ar    1  UNL1        0.0370
      5 C         141.4031  144.9866  163.2659 C.ar    1  UNL1        0.1367
      6 O         142.0780  146.1715  163.8908 O.3     1  UNL1       -0.5054
      7 C         141.8878  144.4553  161.9496 C.ar    1  UNL1        0.0736
      8 C         141.2129  143.2703  161.3246 C.ar    1  UNL1        0.1460
      9 H         141.7752  146.5034  164.7130 H       1  UNL1        0.2922
     10 N         140.1752  140.4611  160.5710 N.am    1  UNL1       -0.2991
     11 C         139.3784  141.4319  161.3911 C.2     1  UNL1        0.2488
     12 O         137.9067  141.2178  161.5864 O.2     1  UNL1       -0.2700
     13 H         141.1412  140.6016  160.4429 H       1  UNL1        0.1498
     14 C         139.5003  139.2762  159.9461 C.3     1  UNL1        0.1109
     15 C         139.2750  138.0306  160.7509 C.3     1  UNL1        0.1107
     16 C         139.0005  137.6887  164.6953 C.3     1  UNL1        0.0946
     17 C         139.5379  137.5920  163.2982 C.2     1  UNL1        0.2230
     18 O         140.8756  136.9599  163.0513 O.2     1  UNL1       -0.2751
     19 N         138.7376  138.1274  162.1481 N.am    1  UNL1       -0.3026
     20 H         137.8596  138.5422  162.3101 H       1  UNL1        0.1495
     21 C         143.1658  142.5386  159.7753 C.3     1  UNL1        0.2358
     22 C         143.8646  141.3521  160.3704 C.3     1  UNL1        0.1700
     23 O         143.8602  140.0383  159.6466 O.3     1  UNL1       -0.3793
     24 H         143.3657  140.1279  158.8169 H       1  UNL1        0.2106
     25 C         144.5678  141.4795  161.6892 C.3     1  UNL1        0.1056
     26 N         143.7800  141.4474  162.9654 N.3     1  UNL1       -0.2703
     27 C         144.0311  142.4760  164.0279 C.3     1  UNL1        0.0758
     28 C         143.2434  142.4438  165.3039 C.3     1  UNL1        0.0577
     29 C         142.2046  141.3830  165.5175 C.3     1  UNL1        0.1399
     30 C         141.9535  140.3545  164.4551 C.3     1  UNL1        0.0577
     31 C         142.7412  140.3866  163.1790 C.3     1  UNL1        0.0758
     32 C         141.1391  140.3882  165.8711 C.3     1  UNL1        0.0695
     33 C         140.6200  140.7304  167.2363 C.ar    1  UNL1        0.0161
     34 C         139.5655  140.0994  168.0964 C.ar    1  UNL1        0.0102
     35 C         139.2557  140.6747  169.4466 C.ar    1  UNL1        0.0576
     36 CL        138.2011  140.0437  170.3067 Cl      1  UNL1       -0.0823
     37 C         140.0004  141.8810  169.9367 C.ar    1  UNL1        0.0145
     38 C         141.0550  142.5120  169.0766 C.ar    1  UNL1        0.0374
     39 C         141.3648  141.9367  167.7264 C.ar    1  UNL1        0.1343
     40 O         142.3441  142.3401  166.6642 O.3     1  UNL1       -0.4825
@<TRIPOS>BOND
     1    16    17    1
     2    17    18    2
     3    17    19   am
     4    19    15    1
     5    15    14    1
     6    14    10    1
     7    10    11   am
     8    11    12    2
     9    11     2    1
    10     2     3   ar
    11     3     4   ar
    12     4     5   ar
    13     5     6    1
    14     5     7   ar
    15     7     8   ar
    16     8     1    1
    17     1    21    1
    18    21    22    1
    19    22    23    1
    20    22    25    1
    21    25    26    1
    22    26    27    1
    23    27    28    1
    24    28    29    1
    25    29    30    1
    26    30    31    1
    27    29    32    1
    28    32    33    1
    29    33    34   ar
    30    34    35   ar
    31    35    36    1
    32    35    37   ar
    33    37    38   ar
    34    38    39   ar
    35    39    40    1
    36     8     2   ar
    37    31    26    1
    38    39    33   ar
    39    40    29    1
    40    19    20    1
    41    10    13    1
    42     6     9    1
    43    23    24    1
@<TRIPOS>MOLECULE
*****
 40 43 0 0 0
SMALL
GASTEIGER

@<TRIPOS>ATOM
      1 O         138.7909  143.2816  159.9872 O.3     1  UNL1       -0.4725
      2 C         138.0001  141.4170  161.6144 C.ar    1  UNL1        0.0874
      3 C         137.5705  140.9855  162.9853 C.ar    1  UNL1        0.0107
      4 C         137.5022  141.9871  164.0998 C.ar    1  UNL1        0.0370
      5 C         137.8635  143.4201  163.8434 C.ar    1  UNL1        0.1367
      6 O         137.7952  144.4217  164.9579 O.3     1  UNL1       -0.5054
      7 C         138.2930  143.8517  162.4726 C.ar    1  UNL1        0.0736
      8 C         138.3613  142.8501  161.3580 C.ar    1  UNL1        0.1460
      9 H         137.5268  144.1522  165.8143 H       1  UNL1        0.2922
     10 N         139.3230  140.2800  159.6890 N.am    1  UNL1       -0.2991
     11 C         138.0683  140.4154  160.4999 C.2     1  UNL1        0.2488
     12 O         136.8820  139.5492  160.1962 O.2     1  UNL1       -0.2700
     13 H         140.1017  140.8485  159.8883 H       1  UNL1        0.1498
     14 C         139.3913  139.2784  158.5745 C.3     1  UNL1        0.1109
     15 C         140.6499  138.4950  158.3462 C.3     1  UNL1        0.1107
     16 C         143.9200  138.8177  160.5716 C.3     1  UNL1        0.0946
     17 C         142.9445  139.0134  159.4492 C.2     1  UNL1        0.2230
     18 O         143.2879  139.9233  158.3071 O.2     1  UNL1       -0.2751
     19 N         141.6255  138.2993  159.4688 N.am    1  UNL1       -0.3026
     20 H         141.4001  137.7021  160.2183 H       1  UNL1        0.1495
     21 C         140.1729  143.8229  159.7701 C.3     1  UNL1        0.2358
     22 C         141.3192  142.8829  159.5409 C.3     1  UNL1        0.1700
     23 O         141.4230  142.1277  158.2490 O.3     1  UNL1       -0.3793
     24 H         140.6750  142.3608  157.6772 H       1  UNL1        0.2106
     25 C         142.3615  142.6981  160.6036 C.3     1  UNL1        0.1056
     26 N         141.9488  142.4800  162.0291 N.3     1  UNL1       -0.2703
     27 C         141.4688  141.1299  162.4728 C.3     1  UNL1        0.0758
     28 C         141.0561  140.9119  163.8983 C.3     1  UNL1        0.0577
     29 C         141.1234  142.0439  164.8801 C.3     1  UNL1        0.1399
     30 C         141.6034  143.3939  164.4365 C.3     1  UNL1        0.0577
     31 C         142.0161  143.6120  163.0110 C.3     1  UNL1        0.0758
     32 C         141.1365  143.0750  165.9694 C.3     1  UNL1        0.0695
     33 C         140.6463  142.4248  167.2293 C.ar    1  UNL1        0.0161
     34 C         140.4469  142.9524  168.6191 C.ar    1  UNL1        0.0102
     35 C         139.9315  142.0470  169.6983 C.ar    1  UNL1        0.0576
     36 CL        139.7321  142.5747  171.0882 Cl      1  UNL1       -0.0823
     37 C         139.6156  140.6140  169.3876 C.ar    1  UNL1        0.0145
     38 C         139.8150  140.0863  167.9977 C.ar    1  UNL1        0.0374
     39 C         140.3304  140.9917  166.9185 C.ar    1  UNL1        0.1343
     40 O         140.6252  140.7563  165.4667 O.3     1  UNL1       -0.4825
@<TRIPOS>BOND
     1    16    17    1
     2    17    18    2
     3    17    19   am
     4    19    15    1
     5    15    14    1
     6    14    10    1
     7    10    11   am
     8    11    12    2
     9    11     2    1
    10     2     3   ar
    11     3     4   ar
    12     4     5   ar
    13     5     6    1
    14     5     7   ar
    15     7     8   ar
    16     8     1    1
    17     1    21    1
    18    21    22    1
    19    22    23    1
    20    22    25    1
    21    25    26    1
    22    26    27    1
    23    27    28    1
    24    28    29    1
    25    29    30    1
    26    30    31    1
    27    29    32    1
    28    32    33    1
    29    33    34   ar
    30    34    35   ar
    31    35    36    1
    32    35    37   ar
    33    37    38   ar
    34    38    39   ar
    35    39    40    1
    36     8     2   ar
    37    31    26    1
    38    39    33   ar
    39    40    29    1
    40    19    20    1
    41    10    13    1
    42     6     9    1
    43    23    24    1
@<TRIPOS>MOLECULE
*****
 40 43 0 0 0
SMALL
GASTEIGER

@<TRIPOS>ATOM
      1 O         140.1092  138.5385  160.6455 O.3     1  UNL1       -0.4725
      2 C         141.8476  138.5913  162.5755 C.ar    1  UNL1        0.0874
      3 C         142.1891  138.3895  164.0222 C.ar    1  UNL1        0.0107
      4 C         141.1337  137.9330  164.9853 C.ar    1  UNL1        0.0370
      5 C         139.7367  137.6784  164.5018 C.ar    1  UNL1        0.1367
      6 O         138.6813  137.2219  165.4649 O.3     1  UNL1       -0.5054
      7 C         139.3952  137.8802  163.0553 C.ar    1  UNL1        0.0736
      8 C         140.4507  138.3367  162.0921 C.ar    1  UNL1        0.1460
      9 H         138.8946  137.0959  166.3686 H       1  UNL1        0.2922
     10 N         142.7096  140.3144  160.8326 N.am    1  UNL1       -0.2991
     11 C         142.9031  139.0478  161.6124 C.2     1  UNL1        0.2488
     12 O         144.1520  138.2376  161.4291 O.2     1  UNL1       -0.2700
     13 H         141.8898  140.8462  160.9529 H       1  UNL1        0.1498
     14 C         143.7650  140.7709  159.8694 C.3     1  UNL1        0.1109
     15 C         144.3316  142.1555  159.9785 C.3     1  UNL1        0.1107
     16 C         144.3103  143.6621  163.6499 C.3     1  UNL1        0.0946
     17 C         144.6602  142.7991  162.4740 C.2     1  UNL1        0.2230
     18 O         145.6885  141.7165  162.6178 O.2     1  UNL1       -0.2751
     19 N         143.9817  143.0186  161.1544 N.am    1  UNL1       -0.3026
     20 H         143.3068  143.7291  161.0600 H       1  UNL1        0.1495
     21 C         138.7621  139.0744  160.2606 C.3     1  UNL1        0.2358
     22 C         138.5974  140.5310  159.9421 C.3     1  UNL1        0.1700
     23 O         138.9044  141.0366  158.5637 O.3     1  UNL1       -0.3793
     24 H         139.1946  140.2982  158.0056 H       1  UNL1        0.2106
     25 C         138.1257  141.4818  161.0020 C.3     1  UNL1        0.1056
     26 N         138.8152  141.5228  162.3336 N.3     1  UNL1       -0.2703
     27 C         140.2322  142.0051  162.4298 C.3     1  UNL1        0.0758
     28 C         140.9216  142.0461  163.7613 C.3     1  UNL1        0.0577
     29 C         140.1940  141.6047  164.9966 C.3     1  UNL1        0.1399
     30 C         138.7770  141.1224  164.9003 C.3     1  UNL1        0.0577
     31 C         138.0876  141.0814  163.5688 C.3     1  UNL1        0.0758
     32 C         139.5976  141.1974  166.3112 C.3     1  UNL1        0.0695
     33 C         140.6360  141.4012  167.3744 C.ar    1  UNL1        0.0161
     34 C         140.6140  141.1700  168.8563 C.ar    1  UNL1        0.0102
     35 C         141.8302  141.4722  169.6807 C.ar    1  UNL1        0.0576
     36 CL        141.8082  141.2410  171.1626 Cl      1  UNL1       -0.0823
     37 C         143.0684  142.0055  169.0232 C.ar    1  UNL1        0.0145
     38 C         143.0904  142.2367  167.5412 C.ar    1  UNL1        0.0374
     39 C         141.8742  141.9345  166.7168 C.ar    1  UNL1        0.1343
     40 O         141.6011  142.0603  165.2473 O.3     1  UNL1       -0.4825
@<TRIPOS>BOND
     1    16    17    1
     2    17    18    2
     3    17    19   am
     4    19    15    1
     5    15    14    1
     6    14    10    1
     7    10    11   am
     8    11    12    2
     9    11     2    1
    10     2     3   ar
    11     3     4   ar
    12     4     5   ar
    13     5     6    1
    14     5     7   ar
    15     7     8   ar
    16     8     1    1
    17     1    21    1
    18    21    22    1
    19    22    23    1
    20    22    25    1
    21    25    26    1
    22    26    27    1
    23    27    28    1
    24    28    29    1
    25    29    30    1
    26    30    31    1
    27    29    32    1
    28    32    33    1
    29    33    34   ar
    30    34    35   ar
    31    35    36    1
    32    35    37   ar
    33    37    38   ar
    34    38    39   ar
    35    39    40    1
    36     8     2   ar
    37    31    26    1
    38    39    33   ar
    39    40    29    1
    40    19    20    1
    41    10    13    1
    42     6     9    1
    43    23    24    1
@<TRIPOS>MOLECULE
*****
 40 43 0 0 0
SMALL
GASTEIGER

@<TRIPOS>ATOM
      1 O         139.2973  141.6731  160.1846 O.3     1  UNL1       -0.4725
      2 C         139.4097  140.0614  162.2192 C.ar    1  UNL1        0.0874
      3 C         139.0446  139.7305  163.6360 C.ar    1  UNL1        0.0107
      4 C         138.2021  140.6802  164.4348 C.ar    1  UNL1        0.0370
      5 C         137.7246  141.9610  163.8169 C.ar    1  UNL1        0.1367
      6 O         136.8822  142.9107  164.6157 O.3     1  UNL1       -0.5054
      7 C         138.0897  142.2919  162.4002 C.ar    1  UNL1        0.0736
      8 C         138.9322  141.3422  161.6013 C.ar    1  UNL1        0.1460
      9 H         136.6541  142.7040  165.5007 H       1  UNL1        0.2922
     10 N         141.5921  139.5480  160.9065 N.am    1  UNL1       -0.2991
     11 C         140.2521  139.1117  161.4204 C.2     1  UNL1        0.2488
     12 O         139.7546  137.7256  161.1354 O.2     1  UNL1       -0.2700
     13 H         141.9186  140.4578  161.0935 H       1  UNL1        0.1498
     14 C         142.4346  138.5983  160.1077 C.3     1  UNL1        0.1109
     15 C         143.5861  137.8893  160.7568 C.3     1  UNL1        0.1107
     16 C         145.0013  139.6038  164.0443 C.3     1  UNL1        0.0946
     17 C         144.0906  138.8593  163.1136 C.2     1  UNL1        0.2230
     18 O         142.7734  138.3401  163.6092 O.2     1  UNL1       -0.2751
     19 N         144.4970  138.6339  161.6874 N.am    1  UNL1       -0.3026
     20 H         145.3614  138.9746  161.3622 H       1  UNL1        0.1495
     21 C         139.4294  143.1054  159.7592 C.3     1  UNL1        0.2358
     22 C         140.7849  143.7437  159.6846 C.3     1  UNL1        0.1700
     23 O         141.6105  143.6075  158.4397 O.3     1  UNL1       -0.3793
     24 H         141.1248  143.0810  157.7857 H       1  UNL1        0.2106
     25 C         141.3147  144.5180  160.8550 C.3     1  UNL1        0.1056
     26 N         141.3378  143.8938  162.2188 N.3     1  UNL1       -0.2703
     27 C         140.5805  144.5289  163.3472 C.3     1  UNL1        0.0758
     28 C         140.6036  143.9047  164.7109 C.3     1  UNL1        0.0577
     29 C         141.3840  142.6454  164.9463 C.3     1  UNL1        0.1399
     30 C         142.1412  142.0104  163.8179 C.3     1  UNL1        0.0577
     31 C         142.1181  142.6346  162.4542 C.3     1  UNL1        0.0758
     32 C         142.1157  141.3937  165.3308 C.3     1  UNL1        0.0695
     33 C         141.8633  141.1380  166.7872 C.ar    1  UNL1        0.0161
     34 C         142.3272  140.0507  167.7104 C.ar    1  UNL1        0.0102
     35 C         141.9033  140.0570  169.1493 C.ar    1  UNL1        0.0576
     36 CL        142.3671  138.9696  170.0726 Cl      1  UNL1       -0.0823
     37 C         141.0156  141.1506  169.6649 C.ar    1  UNL1        0.0145
     38 C         140.5517  142.2381  168.7416 C.ar    1  UNL1        0.0374
     39 C         140.9756  142.2318  167.3028 C.ar    1  UNL1        0.1343
     40 O         140.6793  143.1634  166.1651 O.3     1  UNL1       -0.4825
@<TRIPOS>BOND
     1    16    17    1
     2    17    18    2
     3    17    19   am
     4    19    15    1
     5    15    14    1
     6    14    10    1
     7    10    11   am
     8    11    12    2
     9    11     2    1
    10     2     3   ar
    11     3     4   ar
    12     4     5   ar
    13     5     6    1
    14     5     7   ar
    15     7     8   ar
    16     8     1    1
    17     1    21    1
    18    21    22    1
    19    22    23    1
    20    22    25    1
    21    25    26    1
    22    26    27    1
    23    27    28    1
    24    28    29    1
    25    29    30    1
    26    30    31    1
    27    29    32    1
    28    32    33    1
    29    33    34   ar
    30    34    35   ar
    31    35    36    1
    32    35    37   ar
    33    37    38   ar
    34    38    39   ar
    35    39    40    1
    36     8     2   ar
    37    31    26    1
    38    39    33   ar
    39    40    29    1
    40    19    20    1
    41    10    13    1
    42     6     9    1
    43    23    24    1
