@<TRIPOS>MOLECULE
*****
 30 32 0 0 0
SMALL
GASTEIGER

@<TRIPOS>ATOM
      1 C         138.4697  142.6479  164.4037 C.ar    1  UNL1        0.0448
      2 C         138.1858  141.2059  164.7037 C.ar    1  UNL1        0.0158
      3 C         138.9713  140.4915  165.7632 C.ar    1  UNL1        0.0189
      4 C         140.0408  141.2191  166.5227 C.ar    1  UNL1        0.0670
      5 C         140.3247  142.6611  166.2226 C.ar    1  UNL1        0.0189
      6 C         139.5391  143.3755  165.1631 C.ar    1  UNL1        0.0158
      7 N         140.8264  140.5047  167.5821 N.ar    1  UNL1       -0.2729
      8 C         140.3310  140.4848  168.9978 C.ar    1  UNL1        0.0860
      9 C         141.1166  139.7704  170.0573 C.ar    1  UNL1        0.0561
     10 C         142.3975  139.0759  169.7011 C.ar    1  UNL1        0.1453
     11 C         142.8929  139.0958  168.2854 C.ar    1  UNL1        0.0980
     12 C         142.1073  139.8102  167.2260 C.ar    1  UNL1        0.2679
     13 O         142.6027  139.8301  165.8102 O.2     1  UNL1       -0.2665
     14 O         143.1831  138.3615  170.7606 O.3     1  UNL1       -0.4704
     15 C         143.8787  137.0725  170.4375 C.3     1  UNL1        0.2320
     16 C         144.7523  136.4139  171.4637 C.ar    1  UNL1        0.0212
     17 C         145.7445  137.2295  172.2387 C.ar    1  UNL1       -0.0007
     18 C         146.6181  136.5710  173.2649 C.ar    1  UNL1       -0.0002
     19 C         146.4996  135.0968  173.5161 C.ar    1  UNL1       -0.0000
     20 C         145.5075  134.2813  172.7411 C.ar    1  UNL1       -0.0002
     21 C         144.6338  134.9399  171.7149 C.ar    1  UNL1       -0.0007
     22 N         137.6841  143.3623  163.3442 N.pl3   1  UNL1       -0.3315
     23 H         136.8553  143.8374  163.5822 H       1  UNL1        0.1469
     24 C         138.1612  143.3527  161.9222 C.3     1  UNL1        0.1046
     25 C         138.1915  142.0672  161.1498 C.3     1  UNL1        0.0935
     26 N         139.3337  141.1115  161.3288 N.3     1  UNL1       -0.2712
     27 C         141.5427  141.0368  162.6944 C.3     1  UNL1        0.0188
     28 C         140.7141  141.6341  161.5960 C.3     1  UNL1        0.0722
     29 C         139.0955  139.6332  161.2407 C.3     1  UNL1        0.0722
     30 C         139.5299  138.8749  160.0215 C.3     1  UNL1        0.0188
@<TRIPOS>BOND
     1    27    28    1
     2    28    26    1
     3    26    29    1
     4    29    30    1
     5    26    25    1
     6    25    24    1
     7    24    22    1
     8    22     1    1
     9     1     2   ar
    10     2     3   ar
    11     3     4   ar
    12     4     7    1
    13     7     8   ar
    14     8     9   ar
    15     9    10   ar
    16    10    14    1
    17    14    15    1
    18    15    16    1
    19    16    17   ar
    20    17    18   ar
    21    18    19   ar
    22    19    20   ar
    23    20    21   ar
    24    10    11   ar
    25    11    12   ar
    26    12    13    2
    27     4     5   ar
    28     5     6   ar
    29     6     1   ar
    30    12     7   ar
    31    21    16   ar
    32    22    23    1
@<TRIPOS>MOLECULE
*****
 30 32 0 0 0
SMALL
GASTEIGER

@<TRIPOS>ATOM
      1 C         139.4065  139.1084  165.4173 C.ar    1  UNL1        0.0448
      2 C         139.8091  140.2829  164.5756 C.ar    1  UNL1        0.0158
      3 C         140.2502  140.0732  163.1574 C.ar    1  UNL1        0.0189
      4 C         140.2887  138.6890  162.5808 C.ar    1  UNL1        0.0670
      5 C         139.8861  137.5145  163.4224 C.ar    1  UNL1        0.0189
      6 C         139.4450  137.7242  164.8407 C.ar    1  UNL1        0.0158
      7 N         140.7299  138.4793  161.1625 N.ar    1  UNL1       -0.2729
      8 C         139.7554  138.6693  160.0381 C.ar    1  UNL1        0.0860
      9 C         140.1966  138.4596  158.6199 C.ar    1  UNL1        0.0561
     10 C         141.6121  138.0598  158.3260 C.ar    1  UNL1        0.1453
     11 C         142.5865  137.8698  159.4504 C.ar    1  UNL1        0.0980
     12 C         142.1454  138.0795  160.8687 C.ar    1  UNL1        0.2679
     13 O         143.1199  137.8894  161.9931 O.2     1  UNL1       -0.2665
     14 O         142.0532  137.8501  156.9078 O.3     1  UNL1       -0.4704
     15 C         143.1406  136.8642  156.5985 C.3     1  UNL1        0.2320
     16 C         142.8060  135.4149  156.4049 C.ar    1  UNL1        0.0212
     17 C         143.5459  134.3645  157.1790 C.ar    1  UNL1       -0.0007
     18 C         143.2114  132.9151  156.9853 C.ar    1  UNL1       -0.0002
     19 C         142.1369  132.5162  156.0175 C.ar    1  UNL1       -0.0000
     20 C         141.3971  133.5667  155.2434 C.ar    1  UNL1       -0.0002
     21 C         141.7317  135.0160  155.4371 C.ar    1  UNL1       -0.0007
     22 N         138.9653  139.3181  166.8355 N.pl3   1  UNL1       -0.3315
     23 H         138.2270  138.7823  167.2057 H       1  UNL1        0.1469
     24 C         139.6491  140.3441  167.6897 C.3     1  UNL1        0.1046
     25 C         140.9669  140.0273  168.3324 C.3     1  UNL1        0.0935
     26 N         142.2384  140.1816  167.5516 N.3     1  UNL1       -0.2712
     27 C         143.1201  138.8167  165.5243 C.3     1  UNL1        0.0188
     28 C         142.9343  138.9705  167.0048 C.3     1  UNL1        0.0722
     29 C         142.8140  141.5468  167.3177 C.3     1  UNL1        0.0722
     30 C         142.3594  142.3612  166.1429 C.3     1  UNL1        0.0188
@<TRIPOS>BOND
     1    27    28    1
     2    28    26    1
     3    26    29    1
     4    29    30    1
     5    26    25    1
     6    25    24    1
     7    24    22    1
     8    22     1    1
     9     1     2   ar
    10     2     3   ar
    11     3     4   ar
    12     4     7    1
    13     7     8   ar
    14     8     9   ar
    15     9    10   ar
    16    10    14    1
    17    14    15    1
    18    15    16    1
    19    16    17   ar
    20    17    18   ar
    21    18    19   ar
    22    19    20   ar
    23    20    21   ar
    24    10    11   ar
    25    11    12   ar
    26    12    13    2
    27     4     5   ar
    28     5     6   ar
    29     6     1   ar
    30    12     7   ar
    31    21    16   ar
    32    22    23    1
@<TRIPOS>MOLECULE
*****
 30 32 0 0 0
SMALL
GASTEIGER

@<TRIPOS>ATOM
      1 C         138.9016  139.7700  167.8348 C.ar    1  UNL1        0.0448
      2 C         138.0859  138.6983  167.1745 C.ar    1  UNL1        0.0158
      3 C         138.0752  138.5779  165.6794 C.ar    1  UNL1        0.0189
      4 C         138.8802  139.5291  164.8445 C.ar    1  UNL1        0.0670
      5 C         139.6960  140.6008  165.5048 C.ar    1  UNL1        0.0189
      6 C         139.7067  140.7212  167.0000 C.ar    1  UNL1        0.0158
      7 N         138.8695  139.4087  163.3494 N.ar    1  UNL1       -0.2729
      8 C         138.0414  140.3508  162.5270 C.ar    1  UNL1        0.0860
      9 C         138.0307  140.2304  161.0319 C.ar    1  UNL1        0.0561
     10 C         138.8482  139.1678  160.3592 C.ar    1  UNL1        0.1453
     11 C         139.6764  138.2257  161.1816 C.ar    1  UNL1        0.0980
     12 C         139.6870  138.3461  162.6767 C.ar    1  UNL1        0.2679
     13 O         140.5153  137.4039  163.4991 O.2     1  UNL1       -0.2665
     14 O         138.8375  139.0474  158.8641 O.3     1  UNL1       -0.4704
     15 C         140.1072  139.2337  158.0875 C.3     1  UNL1        0.2320
     16 C         140.7076  138.0781  157.3432 C.ar    1  UNL1        0.0212
     17 C         142.0945  137.6120  157.6741 C.ar    1  UNL1       -0.0007
     18 C         142.6949  136.4564  156.9298 C.ar    1  UNL1       -0.0002
     19 C         141.9084  135.7668  155.8546 C.ar    1  UNL1       -0.0000
     20 C         140.5216  136.2328  155.5238 C.ar    1  UNL1       -0.0002
     21 C         139.9212  137.3885  156.2681 C.ar    1  UNL1       -0.0007
     22 N         138.9123  139.8904  169.3299 N.pl3   1  UNL1       -0.3315
     23 H         138.4462  139.2209  169.8810 H       1  UNL1        0.1469
     24 C         139.6332  141.0308  169.9853 C.3     1  UNL1        0.1046
     25 C         140.8504  140.7674  170.8214 C.3     1  UNL1        0.0935
     26 N         142.1934  140.6279  170.1679 N.3     1  UNL1       -0.2712
     27 C         142.7172  139.1045  168.1296 C.3     1  UNL1        0.0188
     28 C         142.6236  139.3022  169.6136 C.3     1  UNL1        0.0722
     29 C         143.1061  141.8141  170.0689 C.3     1  UNL1        0.0722
     30 C         143.3840  142.4371  168.7329 C.3     1  UNL1        0.0188
@<TRIPOS>BOND
     1    27    28    1
     2    28    26    1
     3    26    29    1
     4    29    30    1
     5    26    25    1
     6    25    24    1
     7    24    22    1
     8    22     1    1
     9     1     2   ar
    10     2     3   ar
    11     3     4   ar
    12     4     7    1
    13     7     8   ar
    14     8     9   ar
    15     9    10   ar
    16    10    14    1
    17    14    15    1
    18    15    16    1
    19    16    17   ar
    20    17    18   ar
    21    18    19   ar
    22    19    20   ar
    23    20    21   ar
    24    10    11   ar
    25    11    12   ar
    26    12    13    2
    27     4     5   ar
    28     5     6   ar
    29     6     1   ar
    30    12     7   ar
    31    21    16   ar
    32    22    23    1
@<TRIPOS>MOLECULE
*****
 30 32 0 0 0
SMALL
GASTEIGER

@<TRIPOS>ATOM
      1 C         138.7427  139.3041  164.8454 C.ar    1  UNL1        0.0448
      2 C         139.2044  140.4648  164.0150 C.ar    1  UNL1        0.0158
      3 C         139.7839  140.2282  162.6518 C.ar    1  UNL1        0.0189
      4 C         139.9018  138.8310  162.1191 C.ar    1  UNL1        0.0670
      5 C         139.4401  137.6704  162.9495 C.ar    1  UNL1        0.0189
      6 C         138.8606  137.9069  164.3127 C.ar    1  UNL1        0.0158
      7 N         140.4813  138.5945  160.7559 N.ar    1  UNL1       -0.2729
      8 C         141.9086  138.1560  160.6135 C.ar    1  UNL1        0.0860
      9 C         142.4882  137.9195  159.2504 C.ar    1  UNL1        0.0561
     10 C         141.6403  138.1214  158.0296 C.ar    1  UNL1        0.1453
     11 C         140.2130  138.5599  158.1720 C.ar    1  UNL1        0.0980
     12 C         139.6335  138.7965  159.5352 C.ar    1  UNL1        0.2679
     13 O         138.2060  139.2350  159.6775 O.2     1  UNL1       -0.2665
     14 O         142.2198  137.8849  156.6665 O.3     1  UNL1       -0.4704
     15 C         143.2797  136.8413  156.4728 C.3     1  UNL1        0.2320
     16 C         142.8932  135.4015  156.3068 C.ar    1  UNL1        0.0212
     17 C         141.7584  135.0295  155.3991 C.ar    1  UNL1       -0.0007
     18 C         141.3718  133.5897  155.2330 C.ar    1  UNL1       -0.0002
     19 C         142.1200  132.5219  155.9748 C.ar    1  UNL1       -0.0000
     20 C         143.2548  132.8940  156.8824 C.ar    1  UNL1       -0.0002
     21 C         143.6413  134.3338  157.0485 C.ar    1  UNL1       -0.0007
     22 N         138.1632  139.5406  166.2086 N.pl3   1  UNL1       -0.3315
     23 H         137.2016  139.7260  166.3092 H       1  UNL1        0.1469
     24 C         139.0488  139.4947  167.4183 C.3     1  UNL1        0.1046
     25 C         140.0226  140.6058  167.6776 C.3     1  UNL1        0.0935
     26 N         141.4976  140.3401  167.6152 N.3     1  UNL1       -0.2712
     27 C         142.3396  138.6607  165.8206 C.3     1  UNL1        0.0188
     28 C         142.1562  140.0720  166.2944 C.3     1  UNL1        0.0722
     29 C         142.3140  140.3425  168.8735 C.3     1  UNL1        0.0722
     30 C         142.4813  139.0770  169.6614 C.3     1  UNL1        0.0188
@<TRIPOS>BOND
     1    27    28    1
     2    28    26    1
     3    26    29    1
     4    29    30    1
     5    26    25    1
     6    25    24    1
     7    24    22    1
     8    22     1    1
     9     1     2   ar
    10     2     3   ar
    11     3     4   ar
    12     4     7    1
    13     7     8   ar
    14     8     9   ar
    15     9    10   ar
    16    10    14    1
    17    14    15    1
    18    15    16    1
    19    16    17   ar
    20    17    18   ar
    21    18    19   ar
    22    19    20   ar
    23    20    21   ar
    24    10    11   ar
    25    11    12   ar
    26    12    13    2
    27     4     5   ar
    28     5     6   ar
    29     6     1   ar
    30    12     7   ar
    31    21    16   ar
    32    22    23    1
@<TRIPOS>MOLECULE
*****
 30 32 0 0 0
SMALL
GASTEIGER

@<TRIPOS>ATOM
      1 C         137.8657  140.4432  162.0723 C.ar    1  UNL1        0.0448
      2 C         138.4304  141.2740  160.9583 C.ar    1  UNL1        0.0158
      3 C         139.2669  140.6304  159.8925 C.ar    1  UNL1        0.0189
      4 C         139.5386  139.1560  159.9405 C.ar    1  UNL1        0.0670
      5 C         138.9739  138.3253  161.0544 C.ar    1  UNL1        0.0189
      6 C         138.1374  138.9689  162.1203 C.ar    1  UNL1        0.0158
      7 N         140.3751  138.5124  158.8747 N.ar    1  UNL1       -0.2729
      8 C         139.7365  138.0445  157.6006 C.ar    1  UNL1        0.0860
      9 C         140.5730  137.4008  156.5347 C.ar    1  UNL1        0.0561
     10 C         142.0480  137.2252  156.7429 C.ar    1  UNL1        0.1453
     11 C         142.6866  137.6931  158.0169 C.ar    1  UNL1        0.0980
     12 C         141.8501  138.3367  159.0828 C.ar    1  UNL1        0.2679
     13 O         142.4888  138.8047  160.3569 O.2     1  UNL1       -0.2665
     14 O         142.8845  136.5816  155.6770 O.3     1  UNL1       -0.4704
     15 C         143.8423  135.4844  156.0358 C.3     1  UNL1        0.2320
     16 C         143.3778  134.0582  156.0499 C.ar    1  UNL1        0.0212
     17 C         142.1132  133.6742  155.3404 C.ar    1  UNL1       -0.0007
     18 C         141.6486  132.2480  155.3545 C.ar    1  UNL1       -0.0002
     19 C         142.4488  131.2058  156.0782 C.ar    1  UNL1       -0.0000
     20 C         143.7133  131.5898  156.7877 C.ar    1  UNL1       -0.0002
     21 C         144.1778  133.0160  156.7735 C.ar    1  UNL1       -0.0007
     22 N         137.0292  141.0869  163.1381 N.pl3   1  UNL1       -0.3315
     23 H         136.0472  141.0686  163.0712 H       1  UNL1        0.1469
     24 C         137.6890  141.7583  164.3059 C.3     1  UNL1        0.1046
     25 C         139.0905  141.3873  164.6908 C.3     1  UNL1        0.0935
     26 N         139.3337  140.2261  165.6088 N.3     1  UNL1       -0.2712
     27 C         138.4705  137.7764  165.6686 C.3     1  UNL1        0.0188
     28 C         138.2346  139.2424  165.8812 C.3     1  UNL1        0.0722
     29 C         140.6760  140.0487  166.2544 C.3     1  UNL1        0.0722
     30 C         140.8179  140.1909  167.7409 C.3     1  UNL1        0.0188
@<TRIPOS>BOND
     1    27    28    1
     2    28    26    1
     3    26    29    1
     4    29    30    1
     5    26    25    1
     6    25    24    1
     7    24    22    1
     8    22     1    1
     9     1     2   ar
    10     2     3   ar
    11     3     4   ar
    12     4     7    1
    13     7     8   ar
    14     8     9   ar
    15     9    10   ar
    16    10    14    1
    17    14    15    1
    18    15    16    1
    19    16    17   ar
    20    17    18   ar
    21    18    19   ar
    22    19    20   ar
    23    20    21   ar
    24    10    11   ar
    25    11    12   ar
    26    12    13    2
    27     4     5   ar
    28     5     6   ar
    29     6     1   ar
    30    12     7   ar
    31    21    16   ar
    32    22    23    1
@<TRIPOS>MOLECULE
*****
 30 32 0 0 0
SMALL
GASTEIGER

@<TRIPOS>ATOM
      1 C         142.5179  138.2452  159.1526 C.ar    1  UNL1        0.0448
      2 C         143.0676  137.5953  160.3877 C.ar    1  UNL1        0.0158
      3 C         142.4984  137.9385  161.7324 C.ar    1  UNL1        0.0189
      4 C         141.3796  138.9315  161.8421 C.ar    1  UNL1        0.0670
      5 C         140.8299  139.5814  160.6070 C.ar    1  UNL1        0.0189
      6 C         141.3991  139.2383  159.2623 C.ar    1  UNL1        0.0158
      7 N         140.8104  139.2747  163.1868 N.ar    1  UNL1       -0.2729
      8 C         139.7465  138.4091  163.7940 C.ar    1  UNL1        0.0860
      9 C         139.1773  138.7523  165.1387 C.ar    1  UNL1        0.0561
     10 C         139.6721  139.9610  165.8762 C.ar    1  UNL1        0.1453
     11 C         140.7360  140.8267  165.2691 C.ar    1  UNL1        0.0980
     12 C         141.3052  140.4835  163.9243 C.ar    1  UNL1        0.2679
     13 O         142.3692  141.3492  163.3172 O.2     1  UNL1       -0.2665
     14 O         139.1029  140.3042  167.2210 O.3     1  UNL1       -0.4704
     15 C         139.8637  139.9609  168.4672 C.3     1  UNL1        0.2320
     16 C         140.8665  140.9275  169.0240 C.ar    1  UNL1        0.0212
     17 C         140.4415  142.3164  169.3987 C.ar    1  UNL1       -0.0007
     18 C         141.4443  143.2831  169.9555 C.ar    1  UNL1       -0.0002
     19 C         142.8721  142.8608  170.1376 C.ar    1  UNL1       -0.0000
     20 C         143.2971  141.4720  169.7628 C.ar    1  UNL1       -0.0002
     21 C         142.2943  140.5053  169.2061 C.ar    1  UNL1       -0.0007
     22 N         143.0871  137.9021  157.8079 N.pl3   1  UNL1       -0.3315
     23 H         143.7950  138.4625  157.4154 H       1  UNL1        0.1469
     24 C         142.5778  136.7050  157.0612 C.3     1  UNL1        0.1046
     25 C         143.5382  135.6618  156.5720 C.3     1  UNL1        0.0935
     26 N         143.2708  134.2106  156.8419 N.3     1  UNL1       -0.2712
     27 C         142.5815  133.0053  154.6460 C.3     1  UNL1        0.0188
     28 C         142.2465  133.4733  156.0312 C.3     1  UNL1        0.0722
     29 C         144.0276  133.4969  157.9225 C.3     1  UNL1        0.0722
     30 C         144.9461  132.3639  157.5721 C.3     1  UNL1        0.0188
@<TRIPOS>BOND
     1    27    28    1
     2    28    26    1
     3    26    29    1
     4    29    30    1
     5    26    25    1
     6    25    24    1
     7    24    22    1
     8    22     1    1
     9     1     2   ar
    10     2     3   ar
    11     3     4   ar
    12     4     7    1
    13     7     8   ar
    14     8     9   ar
    15     9    10   ar
    16    10    14    1
    17    14    15    1
    18    15    16    1
    19    16    17   ar
    20    17    18   ar
    21    18    19   ar
    22    19    20   ar
    23    20    21   ar
    24    10    11   ar
    25    11    12   ar
    26    12    13    2
    27     4     5   ar
    28     5     6   ar
    29     6     1   ar
    30    12     7   ar
    31    21    16   ar
    32    22    23    1
@<TRIPOS>MOLECULE
*****
 30 32 0 0 0
SMALL
GASTEIGER

@<TRIPOS>ATOM
      1 C         138.9273  139.0056  165.2541 C.ar    1  UNL1        0.0448
      2 C         139.3322  140.1880  164.4248 C.ar    1  UNL1        0.0158
      3 C         140.0324  139.9807  163.1145 C.ar    1  UNL1        0.0189
      4 C         140.3278  138.5909  162.6337 C.ar    1  UNL1        0.0670
      5 C         139.9229  137.4085  163.4630 C.ar    1  UNL1        0.0189
      6 C         139.2226  137.6158  164.7732 C.ar    1  UNL1        0.0158
      7 N         141.0280  138.3836  161.3234 N.ar    1  UNL1       -0.2729
      8 C         142.4491  137.9044  161.3002 C.ar    1  UNL1        0.0860
      9 C         143.1494  137.6970  159.9899 C.ar    1  UNL1        0.0561
     10 C         142.4285  137.9690  158.7030 C.ar    1  UNL1        0.1453
     11 C         141.0073  138.4482  158.7263 C.ar    1  UNL1        0.0980
     12 C         140.3071  138.6556  160.0365 C.ar    1  UNL1        0.2679
     13 O         138.8858  139.1348  160.0597 O.2     1  UNL1       -0.2665
     14 O         143.1287  137.7617  157.3928 O.3     1  UNL1       -0.4704
     15 C         142.4361  137.0336  156.2792 C.3     1  UNL1        0.2320
     16 C         142.4216  135.5338  156.2585 C.ar    1  UNL1        0.0212
     17 C         143.3073  134.7623  157.1915 C.ar    1  UNL1       -0.0007
     18 C         143.2928  133.2625  157.1709 C.ar    1  UNL1       -0.0002
     19 C         142.3926  132.5342  156.2173 C.ar    1  UNL1       -0.0000
     20 C         141.5070  133.3057  155.2844 C.ar    1  UNL1       -0.0002
     21 C         141.5215  134.8055  155.3050 C.ar    1  UNL1       -0.0007
     22 N         138.2270  139.2129  166.5643 N.pl3   1  UNL1       -0.3315
     23 H         137.3017  138.8985  166.6831 H       1  UNL1        0.1469
     24 C         138.9366  139.8992  167.6936 C.3     1  UNL1        0.1046
     25 C         140.4359  139.9259  167.7315 C.3     1  UNL1        0.0935
     26 N         141.1463  140.8864  168.6387 N.3     1  UNL1       -0.2712
     27 C         141.2589  143.1937  169.8276 C.3     1  UNL1        0.0188
     28 C         140.5364  142.2230  168.9413 C.3     1  UNL1        0.0722
     29 C         142.4664  140.5102  169.2433 C.3     1  UNL1        0.0722
     30 C         142.5699  139.3022  170.1266 C.3     1  UNL1        0.0188
@<TRIPOS>BOND
     1    27    28    1
     2    28    26    1
     3    26    29    1
     4    29    30    1
     5    26    25    1
     6    25    24    1
     7    24    22    1
     8    22     1    1
     9     1     2   ar
    10     2     3   ar
    11     3     4   ar
    12     4     7    1
    13     7     8   ar
    14     8     9   ar
    15     9    10   ar
    16    10    14    1
    17    14    15    1
    18    15    16    1
    19    16    17   ar
    20    17    18   ar
    21    18    19   ar
    22    19    20   ar
    23    20    21   ar
    24    10    11   ar
    25    11    12   ar
    26    12    13    2
    27     4     5   ar
    28     5     6   ar
    29     6     1   ar
    30    12     7   ar
    31    21    16   ar
    32    22    23    1
@<TRIPOS>MOLECULE
*****
 30 32 0 0 0
SMALL
GASTEIGER

@<TRIPOS>ATOM
      1 C         142.2479  144.8906  157.2343 C.ar    1  UNL1        0.0448
      2 C         141.3351  145.8702  157.9103 C.ar    1  UNL1        0.0158
      3 C         140.9111  145.6431  159.3311 C.ar    1  UNL1        0.0189
      4 C         141.4000  144.4363  160.0758 C.ar    1  UNL1        0.0670
      5 C         142.3128  143.4567  159.3998 C.ar    1  UNL1        0.0189
      6 C         142.7368  143.6839  157.9790 C.ar    1  UNL1        0.0158
      7 N         140.9760  144.2091  161.4966 N.ar    1  UNL1       -0.2729
      8 C         139.5626  143.8113  161.8030 C.ar    1  UNL1        0.0860
      9 C         139.1386  143.5841  163.2238 C.ar    1  UNL1        0.0561
     10 C         140.1280  143.7548  164.3382 C.ar    1  UNL1        0.1453
     11 C         141.5414  144.1526  164.0318 C.ar    1  UNL1        0.0980
     12 C         141.9654  144.3797  162.6110 C.ar    1  UNL1        0.2679
     13 O         143.3789  144.7775  162.3046 O.2     1  UNL1       -0.2665
     14 O         139.7040  143.5276  165.7590 O.3     1  UNL1       -0.4704
     15 C         140.2215  142.3402  166.5154 C.3     1  UNL1        0.2320
     16 C         141.0682  142.5401  167.7373 C.ar    1  UNL1        0.0212
     17 C         140.4857  143.1956  168.9544 C.ar    1  UNL1       -0.0007
     18 C         141.3324  143.3955  170.1763 C.ar    1  UNL1       -0.0002
     19 C         142.7616  142.9400  170.1812 C.ar    1  UNL1       -0.0000
     20 C         143.3441  142.2846  168.9642 C.ar    1  UNL1       -0.0002
     21 C         142.4974  142.0847  167.7422 C.ar    1  UNL1       -0.0007
     22 N         142.6719  145.1178  155.8135 N.pl3   1  UNL1       -0.3315
     23 H         143.3861  145.7642  155.6103 H       1  UNL1        0.1469
     24 C         142.0078  144.3601  154.7023 C.3     1  UNL1        0.1046
     25 C         140.7054  144.8450  154.1376 C.3     1  UNL1        0.0935
     26 N         139.4590  144.7871  154.9702 N.3     1  UNL1       -0.2712
     27 C         139.3251  147.3816  154.9918 C.3     1  UNL1        0.0188
     28 C         138.7063  146.0464  155.2822 C.3     1  UNL1        0.0722
     29 C         138.9653  143.4697  155.4907 C.3     1  UNL1        0.0722
     30 C         138.9163  143.2181  156.9687 C.3     1  UNL1        0.0188
@<TRIPOS>BOND
     1    27    28    1
     2    28    26    1
     3    26    29    1
     4    29    30    1
     5    26    25    1
     6    25    24    1
     7    24    22    1
     8    22     1    1
     9     1     2   ar
    10     2     3   ar
    11     3     4   ar
    12     4     7    1
    13     7     8   ar
    14     8     9   ar
    15     9    10   ar
    16    10    14    1
    17    14    15    1
    18    15    16    1
    19    16    17   ar
    20    17    18   ar
    21    18    19   ar
    22    19    20   ar
    23    20    21   ar
    24    10    11   ar
    25    11    12   ar
    26    12    13    2
    27     4     5   ar
    28     5     6   ar
    29     6     1   ar
    30    12     7   ar
    31    21    16   ar
    32    22    23    1
@<TRIPOS>MOLECULE
*****
 30 32 0 0 0
SMALL
GASTEIGER

@<TRIPOS>ATOM
      1 C         140.3673  145.2938  157.9653 C.ar    1  UNL1        0.0448
      2 C         140.9382  145.1901  159.3485 C.ar    1  UNL1        0.0158
      3 C         140.9507  143.8683  160.0576 C.ar    1  UNL1        0.0189
      4 C         140.3923  142.6503  159.3835 C.ar    1  UNL1        0.0670
      5 C         139.8214  142.7540  158.0004 C.ar    1  UNL1        0.0189
      6 C         139.8089  144.0757  157.2913 C.ar    1  UNL1        0.0158
      7 N         140.4048  141.3285  160.0926 N.ar    1  UNL1       -0.2729
      8 C         139.2423  140.9272  160.9514 C.ar    1  UNL1        0.0860
      9 C         139.2548  139.6054  161.6605 C.ar    1  UNL1        0.0561
     10 C         140.4297  138.6850  161.5108 C.ar    1  UNL1        0.1453
     11 C         141.5921  139.0864  160.6520 C.ar    1  UNL1        0.0980
     12 C         141.5797  140.4082  159.9429 C.ar    1  UNL1        0.2679
     13 O         142.7422  140.8095  159.0841 O.2     1  UNL1       -0.2665
     14 O         140.4422  137.3633  162.2199 O.3     1  UNL1       -0.4704
     15 C         140.9625  137.2701  163.6237 C.3     1  UNL1        0.2320
     16 C         140.2633  137.9990  164.7326 C.ar    1  UNL1        0.0212
     17 C         140.9577  139.1196  165.4484 C.ar    1  UNL1       -0.0007
     18 C         140.2585  139.8485  166.5574 C.ar    1  UNL1       -0.0002
     19 C         138.8649  139.4568  166.9506 C.ar    1  UNL1       -0.0000
     20 C         138.1705  138.3364  166.2348 C.ar    1  UNL1       -0.0002
     21 C         138.8698  137.6075  165.1258 C.ar    1  UNL1       -0.0007
     22 N         140.3548  146.6155  157.2562 N.pl3   1  UNL1       -0.3315
     23 H         141.1139  147.2346  157.3555 H       1  UNL1        0.1469
     24 C         139.1859  146.9941  156.3960 C.3     1  UNL1        0.1046
     25 C         139.4150  147.5565  155.0244 C.3     1  UNL1        0.0935
     26 N         139.4190  149.0417  154.8138 N.3     1  UNL1       -0.2712
     27 C         138.8320  151.3876  155.7637 C.3     1  UNL1        0.0188
     28 C         138.5396  149.9205  155.6531 C.3     1  UNL1        0.0722
     29 C         140.3023  149.6480  153.7640 C.3     1  UNL1        0.0722
     30 C         139.7292  150.0321  152.4320 C.3     1  UNL1        0.0188
@<TRIPOS>BOND
     1    27    28    1
     2    28    26    1
     3    26    29    1
     4    29    30    1
     5    26    25    1
     6    25    24    1
     7    24    22    1
     8    22     1    1
     9     1     2   ar
    10     2     3   ar
    11     3     4   ar
    12     4     7    1
    13     7     8   ar
    14     8     9   ar
    15     9    10   ar
    16    10    14    1
    17    14    15    1
    18    15    16    1
    19    16    17   ar
    20    17    18   ar
    21    18    19   ar
    22    19    20   ar
    23    20    21   ar
    24    10    11   ar
    25    11    12   ar
    26    12    13    2
    27     4     5   ar
    28     5     6   ar
    29     6     1   ar
    30    12     7   ar
    31    21    16   ar
    32    22    23    1
