@<TRIPOS>MOLECULE
*****
 23 25 0 0 0
SMALL
GASTEIGER

@<TRIPOS>ATOM
      1 C         138.5461  139.5199  165.7963 C.ar    1  UNL1        0.0397
      2 C         137.6551  138.7547  166.7293 C.ar    1  UNL1        0.1216
      3 N         138.1704  138.9476  168.1247 N.ar    1  UNL1       -0.1673
      4 N         139.3800  139.8320  168.0541 N.ar    1  UNL1       -0.2433
      5 C         139.6121  140.1857  166.6150 C.ar    1  UNL1        0.0971
      6 C         137.9172  141.0011  162.1685 C.ar    1  UNL1        0.1547
      7 C         138.0661  140.9165  163.6587 C.ar    1  UNL1        0.0381
      8 C         138.3972  139.6045  164.3060 C.ar    1  UNL1        0.0061
      9 C         138.5795  138.3771  163.4632 C.ar    1  UNL1        0.0012
     10 C         138.4306  138.4618  161.9731 C.ar    1  UNL1        0.0145
     11 C         138.0995  139.7738  161.3257 C.ar    1  UNL1        0.0917
     12 CL        137.9507  139.8583  159.8354 Cl      1  UNL1       -0.0791
     13 O         137.5861  142.3131  161.5211 O.3     1  UNL1       -0.4228
     14 F         139.3667  144.1960  161.7064 F       1  UNL1       -0.1550
     15 C         138.0618  143.5950  162.1379 C.3     1  UNL1        0.5087
     16 F         137.2327  144.2759  163.1862 F       1  UNL1       -0.1550
     17 C         140.2113  140.2834  169.2182 C.3     1  UNL1        0.1722
     18 C         140.1285  141.7039  169.6929 C.ar    1  UNL1        0.0777
     19 C         140.8703  142.8718  169.1136 C.ar    1  UNL1        0.0385
     20 C         140.4896  144.0956  169.8929 C.ar    1  UNL1        0.1211
     21 N         139.5125  143.6840  170.9539 N.ar    1  UNL1       -0.1713
     22 N         139.2892  142.2058  170.8303 N.ar    1  UNL1       -0.2778
     23 H         138.6961  141.6609  171.3964 H       1  UNL1        0.1886
@<TRIPOS>BOND
     1    14    15    1
     2    15    16    1
     3    15    13    1
     4    13     6    1
     5     6     7   ar
     6     7     8   ar
     7     8     1    1
     8     1     2   ar
     9     2     3   ar
    10     3     4   ar
    11     4    17    1
    12    17    18    1
    13    18    19   ar
    14    19    20   ar
    15    20    21   ar
    16    21    22   ar
    17     4     5   ar
    18     8     9   ar
    19     9    10   ar
    20    10    11   ar
    21    11    12    1
    22    11     6   ar
    23     5     1   ar
    24    22    18   ar
    25    22    23    1
@<TRIPOS>MOLECULE
*****
 23 25 0 0 0
SMALL
GASTEIGER

@<TRIPOS>ATOM
      1 C         139.0913  143.4716  164.2246 C.ar    1  UNL1        0.0397
      2 C         137.7306  143.6698  163.6253 C.ar    1  UNL1        0.1216
      3 N         137.8609  144.6426  162.4910 N.ar    1  UNL1       -0.1673
      4 N         139.3022  145.0457  162.3892 N.ar    1  UNL1       -0.2433
      5 C         140.0626  144.3219  163.4607 C.ar    1  UNL1        0.0971
      6 C         140.4490  142.2505  167.7482 C.ar    1  UNL1        0.1547
      7 C         140.1177  143.1423  166.5886 C.ar    1  UNL1        0.0381
      8 C         139.4226  142.5797  165.3843 C.ar    1  UNL1        0.0061
      9 C         139.0589  141.1252  165.3396 C.ar    1  UNL1        0.0012
     10 C         139.3902  140.2333  166.4992 C.ar    1  UNL1        0.0145
     11 C         140.0853  140.7960  167.7035 C.ar    1  UNL1        0.0917
     12 CL        140.4166  139.9040  168.8632 Cl      1  UNL1       -0.0791
     13 O         141.1441  142.8131  168.9525 O.3     1  UNL1       -0.4228
     14 F         139.4727  142.7666  170.9410 F       1  UNL1       -0.1550
     15 C         140.3556  143.5362  170.0039 C.3     1  UNL1        0.5087
     16 F         140.4500  145.0289  170.1182 F       1  UNL1       -0.1550
     17 C         139.8813  146.0041  161.3913 C.3     1  UNL1        0.1722
     18 C         140.7195  145.4913  160.2580 C.ar    1  UNL1        0.0777
     19 C         140.3489  145.5183  158.8047 C.ar    1  UNL1        0.0385
     20 C         141.4759  144.9052  158.0275 C.ar    1  UNL1        0.1211
     21 N         142.5429  144.4992  159.0004 N.ar    1  UNL1       -0.1713
     22 N         142.0755  144.8615  160.3789 N.ar    1  UNL1       -0.2778
     23 H         142.5716  144.7121  161.2160 H       1  UNL1        0.1886
@<TRIPOS>BOND
     1    14    15    1
     2    15    16    1
     3    15    13    1
     4    13     6    1
     5     6     7   ar
     6     7     8   ar
     7     8     1    1
     8     1     2   ar
     9     2     3   ar
    10     3     4   ar
    11     4    17    1
    12    17    18    1
    13    18    19   ar
    14    19    20   ar
    15    20    21   ar
    16    21    22   ar
    17     4     5   ar
    18     8     9   ar
    19     9    10   ar
    20    10    11   ar
    21    11    12    1
    22    11     6   ar
    23     5     1   ar
    24    22    18   ar
    25    22    23    1
@<TRIPOS>MOLECULE
*****
 23 25 0 0 0
SMALL
GASTEIGER

@<TRIPOS>ATOM
      1 C         141.1392  139.3493  166.3322 C.ar    1  UNL1        0.0397
      2 C         142.5637  138.9061  166.4879 C.ar    1  UNL1        0.1216
      3 N         143.0453  139.3583  167.8346 N.ar    1  UNL1       -0.1673
      4 N         141.9183  140.0810  168.5112 N.ar    1  UNL1       -0.2433
      5 C         140.7403  140.0755  167.5827 C.ar    1  UNL1        0.0971
      6 C         138.3183  139.8518  163.5862 C.ar    1  UNL1        0.1547
      7 C         139.1909  140.0924  164.7823 C.ar    1  UNL1        0.0381
      8 C         140.2666  139.1087  165.1360 C.ar    1  UNL1        0.0061
      9 C         140.4698  137.8844  164.2935 C.ar    1  UNL1        0.0012
     10 C         139.5973  137.6439  163.0974 C.ar    1  UNL1        0.0145
     11 C         138.5215  138.6276  162.7438 C.ar    1  UNL1        0.0917
     12 CL        137.6490  138.3869  161.5476 Cl      1  UNL1       -0.0791
     13 O         137.2426  140.8355  163.2326 O.3     1  UNL1       -0.4228
     14 F         137.7240  143.0815  162.0186 F       1  UNL1       -0.1550
     15 C         137.5247  142.3077  163.2880 C.3     1  UNL1        0.5087
     16 F         137.6077  143.0061  164.6130 F       1  UNL1       -0.1550
     17 C         141.9618  140.7005  169.8766 C.3     1  UNL1        0.1722
     18 C         141.1209  141.9047  170.1810 C.ar    1  UNL1        0.0777
     19 C         141.3028  143.2764  169.6018 C.ar    1  UNL1        0.0385
     20 C         140.2447  144.1681  170.1807 C.ar    1  UNL1        0.1211
     21 N         139.4089  143.3476  171.1178 N.ar    1  UNL1       -0.1713
     22 N         139.9503  141.9487  171.1179 N.ar    1  UNL1       -0.2778
     23 H         139.5991  141.1923  171.6412 H       1  UNL1        0.1886
@<TRIPOS>BOND
     1    14    15    1
     2    15    16    1
     3    15    13    1
     4    13     6    1
     5     6     7   ar
     6     7     8   ar
     7     8     1    1
     8     1     2   ar
     9     2     3   ar
    10     3     4   ar
    11     4    17    1
    12    17    18    1
    13    18    19   ar
    14    19    20   ar
    15    20    21   ar
    16    21    22   ar
    17     4     5   ar
    18     8     9   ar
    19     9    10   ar
    20    10    11   ar
    21    11    12    1
    22    11     6   ar
    23     5     1   ar
    24    22    18   ar
    25    22    23    1
@<TRIPOS>MOLECULE
*****
 23 25 0 0 0
SMALL
GASTEIGER

@<TRIPOS>ATOM
      1 C         139.0134  139.1768  165.9565 C.ar    1  UNL1        0.0397
      2 C         137.8501  138.7756  166.8142 C.ar    1  UNL1        0.1216
      3 N         138.1683  139.1499  168.2315 N.ar    1  UNL1       -0.1673
      4 N         139.5284  139.7825  168.2497 N.ar    1  UNL1       -0.2433
      5 C         140.0506  139.7991  166.8436 C.ar    1  UNL1        0.0971
      6 C         140.3880  138.0458  162.4095 C.ar    1  UNL1        0.1547
      7 C         140.2806  138.2338  163.8937 C.ar    1  UNL1        0.0381
      8 C         139.1207  138.9888  164.4721 C.ar    1  UNL1        0.0061
      9 C         138.0682  139.5558  163.5663 C.ar    1  UNL1        0.0012
     10 C         138.1755  139.3678  162.0820 C.ar    1  UNL1        0.0145
     11 C         139.3354  138.6128  161.5036 C.ar    1  UNL1        0.0917
     12 CL        139.4427  138.4248  160.0193 Cl      1  UNL1       -0.0791
     13 O         141.5479  137.2907  161.8310 O.3     1  UNL1       -0.4228
     14 F         144.1010  137.3211  161.3507 F       1  UNL1       -0.1550
     15 C         142.7784  138.0275  161.3918 C.3     1  UNL1        0.5087
     16 F         142.6863  139.4709  160.9937 F       1  UNL1       -0.1550
     17 C         140.2409  140.3064  169.4612 C.3     1  UNL1        0.1722
     18 C         140.1340  141.7576  169.8251 C.ar    1  UNL1        0.0777
     19 C         140.8755  142.8870  169.1734 C.ar    1  UNL1        0.0385
     20 C         140.4665  144.1617  169.8501 C.ar    1  UNL1        0.1211
     21 N         139.4722  143.8201  170.9200 N.ar    1  UNL1       -0.1713
     22 N         139.2667  142.3343  170.9045 N.ar    1  UNL1       -0.2778
     23 H         138.6678  141.8268  171.4986 H       1  UNL1        0.1886
@<TRIPOS>BOND
     1    14    15    1
     2    15    16    1
     3    15    13    1
     4    13     6    1
     5     6     7   ar
     6     7     8   ar
     7     8     1    1
     8     1     2   ar
     9     2     3   ar
    10     3     4   ar
    11     4    17    1
    12    17    18    1
    13    18    19   ar
    14    19    20   ar
    15    20    21   ar
    16    21    22   ar
    17     4     5   ar
    18     8     9   ar
    19     9    10   ar
    20    10    11   ar
    21    11    12    1
    22    11     6   ar
    23     5     1   ar
    24    22    18   ar
    25    22    23    1
@<TRIPOS>MOLECULE
*****
 23 25 0 0 0
SMALL
GASTEIGER

@<TRIPOS>ATOM
      1 C         139.8295  140.3692  169.4550 C.ar    1  UNL1        0.0397
      2 C         140.2977  139.8010  170.7619 C.ar    1  UNL1        0.1216
      3 N         139.1064  139.2301  171.4725 N.ar    1  UNL1       -0.1673
      4 N         137.9019  139.4455  170.6048 N.ar    1  UNL1       -0.2433
      5 C         138.3488  140.1495  169.3579 C.ar    1  UNL1        0.0971
      6 C         140.9244  142.3391  166.1884 C.ar    1  UNL1        0.1547
      7 C         140.0632  141.6689  167.2176 C.ar    1  UNL1        0.0381
      8 C         140.6907  141.0394  168.4259 C.ar    1  UNL1        0.0061
      9 C         142.1794  141.0803  168.6051 C.ar    1  UNL1        0.0012
     10 C         143.0406  141.7505  167.5760 C.ar    1  UNL1        0.0145
     11 C         142.4131  142.3799  166.3677 C.ar    1  UNL1        0.0917
     12 CL        143.2743  143.0502  165.3385 Cl      1  UNL1       -0.0791
     13 O         140.2969  142.9685  164.9801 O.3     1  UNL1       -0.4228
     14 F         138.9260  145.0813  165.6179 F       1  UNL1       -0.1550
     15 C         138.9788  143.6741  165.1011 C.3     1  UNL1        0.5087
     16 F         137.7134  142.9726  164.7054 F       1  UNL1       -0.1550
     17 C         136.4972  139.0299  170.9273 C.3     1  UNL1        0.1722
     18 C         136.2493  137.9221  171.9078 C.ar    1  UNL1        0.0777
     19 C         135.1254  137.8573  172.8991 C.ar    1  UNL1        0.0385
     20 C         135.2631  136.5798  173.6732 C.ar    1  UNL1        0.1211
     21 N         136.4722  135.8552  173.1603 N.ar    1  UNL1       -0.1713
     22 N         137.0817  136.6848  172.0693 N.ar    1  UNL1       -0.2778
     23 H         137.8867  136.4571  171.5503 H       1  UNL1        0.1886
@<TRIPOS>BOND
     1    14    15    1
     2    15    16    1
     3    15    13    1
     4    13     6    1
     5     6     7   ar
     6     7     8   ar
     7     8     1    1
     8     1     2   ar
     9     2     3   ar
    10     3     4   ar
    11     4    17    1
    12    17    18    1
    13    18    19   ar
    14    19    20   ar
    15    20    21   ar
    16    21    22   ar
    17     4     5   ar
    18     8     9   ar
    19     9    10   ar
    20    10    11   ar
    21    11    12    1
    22    11     6   ar
    23     5     1   ar
    24    22    18   ar
    25    22    23    1
@<TRIPOS>MOLECULE
*****
 23 25 0 0 0
SMALL
GASTEIGER

@<TRIPOS>ATOM
      1 C         139.5513  140.1415  165.5590 C.ar    1  UNL1        0.0397
      2 C         138.9248  138.9324  164.9301 C.ar    1  UNL1        0.1216
      3 N         138.1476  139.3846  163.7295 N.ar    1  UNL1       -0.1673
      4 N         138.2937  140.8732  163.6164 N.ar    1  UNL1       -0.2433
      5 C         139.1612  141.3409  164.7472 C.ar    1  UNL1        0.0971
      6 C         140.8083  140.8457  169.2569 C.ar    1  UNL1        0.1547
      7 C         139.9436  140.8374  168.0313 C.ar    1  UNL1        0.0381
      8 C         140.4160  140.1497  166.7847 C.ar    1  UNL1        0.0061
      9 C         141.7531  139.4701  166.7638 C.ar    1  UNL1        0.0012
     10 C         142.6177  139.4784  167.9895 C.ar    1  UNL1        0.0145
     11 C         142.1454  140.1661  169.2360 C.ar    1  UNL1        0.0917
     12 CL        143.0101  140.1743  170.4617 Cl      1  UNL1       -0.0791
     13 O         140.3359  141.5334  170.5034 O.3     1  UNL1       -0.4228
     14 F         138.9048  143.5235  171.3644 F       1  UNL1       -0.1550
     15 C         139.9832  142.9909  170.4681 C.3     1  UNL1        0.5087
     16 F         140.7089  143.9159  169.5364 F       1  UNL1       -0.1550
     17 C         137.6800  141.7415  162.5584 C.3     1  UNL1        0.1722
     18 C         138.2829  143.0782  162.2425 C.ar    1  UNL1        0.0777
     19 C         139.5918  143.3133  161.5486 C.ar    1  UNL1        0.0385
     20 C         139.8007  144.7948  161.4423 C.ar    1  UNL1        0.1211
     21 N         138.6208  145.4755  162.0705 N.ar    1  UNL1       -0.1713
     22 N         137.6828  144.4146  162.5651 N.ar    1  UNL1       -0.2778
     23 H         136.8240  144.5684  163.0213 H       1  UNL1        0.1886
@<TRIPOS>BOND
     1    14    15    1
     2    15    16    1
     3    15    13    1
     4    13     6    1
     5     6     7   ar
     6     7     8   ar
     7     8     1    1
     8     1     2   ar
     9     2     3   ar
    10     3     4   ar
    11     4    17    1
    12    17    18    1
    13    18    19   ar
    14    19    20   ar
    15    20    21   ar
    16    21    22   ar
    17     4     5   ar
    18     8     9   ar
    19     9    10   ar
    20    10    11   ar
    21    11    12    1
    22    11     6   ar
    23     5     1   ar
    24    22    18   ar
    25    22    23    1
@<TRIPOS>MOLECULE
*****
 23 25 0 0 0
SMALL
GASTEIGER

@<TRIPOS>ATOM
      1 C         139.3825  141.8079  165.5210 C.ar    1  UNL1        0.0397
      2 C         138.5692  140.5605  165.3405 C.ar    1  UNL1        0.1216
      3 N         138.8254  139.6659  166.5169 N.ar    1  UNL1       -0.1673
      4 N         139.7970  140.3604  167.4246 N.ar    1  UNL1       -0.2433
      5 C         140.1413  141.6842  166.8090 C.ar    1  UNL1        0.0971
      6 C         140.7640  144.8760  163.4166 C.ar    1  UNL1        0.1547
      7 C         140.7176  143.7097  164.3587 C.ar    1  UNL1        0.0381
      8 C         139.4289  142.9743  164.5789 C.ar    1  UNL1        0.0061
      9 C         138.1867  143.4052  163.8570 C.ar    1  UNL1        0.0012
     10 C         138.2331  144.5715  162.9150 C.ar    1  UNL1        0.0145
     11 C         139.5218  145.3069  162.6948 C.ar    1  UNL1        0.0917
     12 CL        139.5682  146.4733  161.7526 Cl      1  UNL1       -0.0791
     13 O         142.0527  145.6114  163.1964 O.3     1  UNL1       -0.4228
     14 F         144.0673  145.3102  164.8090 F       1  UNL1       -0.1550
     15 C         143.3581  144.9553  163.5358 C.3     1  UNL1        0.5087
     16 F         143.9545  143.9441  162.6019 F       1  UNL1       -0.1550
     17 C         140.3306  139.8250  168.7202 C.3     1  UNL1        0.1722
     18 C         140.7431  140.7704  169.8092 C.ar    1  UNL1        0.0777
     19 C         142.0974  141.3955  169.9679 C.ar    1  UNL1        0.0385
     20 C         142.0651  142.2682  171.1875 C.ar    1  UNL1        0.1211
     21 N         140.6909  142.1824  171.7825 N.ar    1  UNL1       -0.1713
     22 N         139.8738  141.2568  170.9307 N.ar    1  UNL1       -0.2778
     23 H         138.9323  141.0115  171.0813 H       1  UNL1        0.1886
@<TRIPOS>BOND
     1    14    15    1
     2    15    16    1
     3    15    13    1
     4    13     6    1
     5     6     7   ar
     6     7     8   ar
     7     8     1    1
     8     1     2   ar
     9     2     3   ar
    10     3     4   ar
    11     4    17    1
    12    17    18    1
    13    18    19   ar
    14    19    20   ar
    15    20    21   ar
    16    21    22   ar
    17     4     5   ar
    18     8     9   ar
    19     9    10   ar
    20    10    11   ar
    21    11    12    1
    22    11     6   ar
    23     5     1   ar
    24    22    18   ar
    25    22    23    1
@<TRIPOS>MOLECULE
*****
 23 25 0 0 0
SMALL
GASTEIGER

@<TRIPOS>ATOM
      1 C         139.7596  138.9325  166.0674 C.ar    1  UNL1        0.0397
      2 C         138.3730  138.3710  166.1771 C.ar    1  UNL1        0.1216
      3 N         137.8012  138.8022  167.4951 N.ar    1  UNL1       -0.1673
      4 N         138.8344  139.6303  168.2000 N.ar    1  UNL1       -0.2433
      5 C         140.0447  139.7108  167.3176 C.ar    1  UNL1        0.0971
      6 C         142.7329  139.5557  163.5138 C.ar    1  UNL1        0.1547
      7 C         141.7959  139.7400  164.6705 C.ar    1  UNL1        0.0381
      8 C         140.6965  138.7482  164.9106 C.ar    1  UNL1        0.0061
      9 C         140.5341  137.5721  163.9939 C.ar    1  UNL1        0.0012
     10 C         141.4710  137.3878  162.8372 C.ar    1  UNL1        0.0145
     11 C         142.5704  138.3796  162.5971 C.ar    1  UNL1        0.0917
     12 CL        143.5074  138.1953  161.4403 Cl      1  UNL1       -0.0791
     13 O         143.8323  140.5475  163.2737 O.3     1  UNL1       -0.4228
     14 F         145.4344  139.1347  164.7526 F       1  UNL1       -0.1550
     15 C         145.1667  140.3623  163.9333 C.3     1  UNL1        0.5087
     16 F         146.2333  141.4049  163.7737 F       1  UNL1       -0.1550
     17 C         138.6837  140.2661  169.5502 C.3     1  UNL1        0.1722
     18 C         139.8756  140.8698  170.2321 C.ar    1  UNL1        0.0777
     19 C         140.6005  142.1117  169.8052 C.ar    1  UNL1        0.0385
     20 C         141.7248  142.3470  170.7699 C.ar    1  UNL1        0.1211
     21 N         141.6947  141.2505  171.7930 N.ar    1  UNL1       -0.1713
     22 N         140.5518  140.3375  171.4607 N.ar    1  UNL1       -0.2778
     23 H         140.2913  139.5307  171.9610 H       1  UNL1        0.1886
@<TRIPOS>BOND
     1    14    15    1
     2    15    16    1
     3    15    13    1
     4    13     6    1
     5     6     7   ar
     6     7     8   ar
     7     8     1    1
     8     1     2   ar
     9     2     3   ar
    10     3     4   ar
    11     4    17    1
    12    17    18    1
    13    18    19   ar
    14    19    20   ar
    15    20    21   ar
    16    21    22   ar
    17     4     5   ar
    18     8     9   ar
    19     9    10   ar
    20    10    11   ar
    21    11    12    1
    22    11     6   ar
    23     5     1   ar
    24    22    18   ar
    25    22    23    1
@<TRIPOS>MOLECULE
*****
 23 25 0 0 0
SMALL
GASTEIGER

@<TRIPOS>ATOM
      1 C         142.1080  139.1927  166.0111 C.ar    1  UNL1        0.0397
      2 C         143.1013  139.1129  167.1322 C.ar    1  UNL1        0.1216
      3 N         142.4028  139.5083  168.3994 N.ar    1  UNL1       -0.1673
      4 N         140.9778  139.8326  168.0614 N.ar    1  UNL1       -0.2433
      5 C         140.7956  139.6375  166.5854 C.ar    1  UNL1        0.0971
      6 C         141.5466  138.0626  162.2484 C.ar    1  UNL1        0.1547
      7 C         141.2752  138.3730  163.6906 C.ar    1  UNL1        0.0381
      8 C         142.3795  138.8823  164.5688 C.ar    1  UNL1        0.0061
      9 C         143.7551  139.0810  164.0049 C.ar    1  UNL1        0.0012
     10 C         144.0264  138.7706  162.5627 C.ar    1  UNL1        0.0145
     11 C         142.9222  138.2614  161.6845 C.ar    1  UNL1        0.0917
     12 CL        143.1936  137.9509  160.2422 Cl      1  UNL1       -0.0791
     13 O         140.4423  137.5533  161.3702 O.3     1  UNL1       -0.4228
     14 F         138.6133  139.2402  160.6226 F       1  UNL1       -0.1550
     15 C         139.0572  138.1126  161.5065 C.3     1  UNL1        0.5087
     16 F         138.1159  137.5442  162.5268 F       1  UNL1       -0.1550
     17 C         139.9206  140.2743  169.0295 C.3     1  UNL1        0.1722
     18 C         139.9383  141.6722  169.5730 C.ar    1  UNL1        0.0777
     19 C         140.6930  142.8330  168.9960 C.ar    1  UNL1        0.0385
     20 C         140.4256  144.0331  169.8553 C.ar    1  UNL1        0.1211
     21 N         139.5057  143.6139  170.9634 N.ar    1  UNL1       -0.1713
     22 N         139.2045  142.1548  170.7890 N.ar    1  UNL1       -0.2778
     23 H         138.6266  141.6097  171.3705 H       1  UNL1        0.1886
@<TRIPOS>BOND
     1    14    15    1
     2    15    16    1
     3    15    13    1
     4    13     6    1
     5     6     7   ar
     6     7     8   ar
     7     8     1    1
     8     1     2   ar
     9     2     3   ar
    10     3     4   ar
    11     4    17    1
    12    17    18    1
    13    18    19   ar
    14    19    20   ar
    15    20    21   ar
    16    21    22   ar
    17     4     5   ar
    18     8     9   ar
    19     9    10   ar
    20    10    11   ar
    21    11    12    1
    22    11     6   ar
    23     5     1   ar
    24    22    18   ar
    25    22    23    1
