@<TRIPOS>MOLECULE
*****
 33 38 0 0 0
SMALL
GASTEIGER

@<TRIPOS>ATOM
      1 C         138.9005  142.1285  161.6499 C.2     1  UNL1        0.0866
      2 N         137.9938  141.0498  161.1357 N.2     1  UNL1       -0.1523
      3 N         137.7031  140.1098  162.2679 N.2     1  UNL1       -0.1523
      4 C         138.4301  140.6075  163.4819 C.2     1  UNL1        0.0858
      5 C         139.1701  141.8551  163.0999 C.3     1  UNL1        0.0883
      6 C         139.8972  142.3528  164.3139 C.3     1  UNL1        0.0384
      7 C         139.6065  141.4128  165.4462 C.ar    1  UNL1       -0.0205
      8 C         140.0502  141.3997  166.8789 C.ar    1  UNL1       -0.0065
      9 C         139.5873  140.3080  167.7974 C.ar    1  UNL1        0.0018
     10 C         138.6806  139.2293  167.2832 C.ar    1  UNL1       -0.0023
     11 C         138.2369  139.2424  165.8505 C.ar    1  UNL1        0.0007
     12 C         138.6998  140.3342  164.9319 C.ar    1  UNL1        0.0117
     13 C         140.1459  144.6706  158.9943 C.ar    1  UNL1        0.0710
     14 C         139.5500  143.3432  159.3591 C.ar    1  UNL1        0.0165
     15 C         139.4424  143.2786  160.8539 C.ar    1  UNL1        0.0233
     16 C         139.9718  144.5660  161.4129 C.ar    1  UNL1        0.0373
     17 S         140.4066  145.4262  160.2635 S.2     1  UNL1       -0.0780
     18 C         140.7163  145.6431  156.2142 C.1     1  UNL1       -0.0388
     19 C         140.4311  145.1568  157.6042 C.1     1  UNL1       -0.0543
     20 C         141.0014  146.1293  154.8241 C.3     1  UNL1        0.2814
     21 O         139.9439  146.8643  154.0550 O.3     1  UNL1       -0.4612
     22 C         139.6091  148.2831  154.4083 C.ar    1  UNL1        0.1400
     23 C         138.7699  148.5772  155.6162 C.ar    1  UNL1        0.0369
     24 C         138.4352  149.9960  155.9696 C.ar    1  UNL1        0.0031
     25 C         138.9397  151.1208  155.1150 C.ar    1  UNL1        0.0002
     26 C         139.7789  150.8267  153.9069 C.ar    1  UNL1        0.0031
     27 C         140.1137  149.4079  153.5536 C.ar    1  UNL1        0.0369
     28 C         140.0311  140.2948  169.2303 C.3     1  UNL1        0.1538
     29 N         141.2362  141.0836  169.6495 N.ar    1  UNL1       -0.2449
     30 C         142.6577  140.7890  169.2722 C.ar    1  UNL1        0.0971
     31 C         143.5314  141.8287  169.9091 C.ar    1  UNL1        0.0427
     32 C         142.6498  142.7660  170.6799 C.ar    1  UNL1        0.1217
     33 N         141.2313  142.3055  170.5195 N.ar    1  UNL1       -0.1673
@<TRIPOS>BOND
     1    18    19    3
     2    19    13    1
     3    13    14   ar
     4    14    15   ar
     5    15     1    1
     6     1     2    2
     7     2     3    1
     8     3     4    2
     9     4     5    1
    10     5     6    1
    11     6     7    1
    12     7     8   ar
    13     8     9   ar
    14     9    28    1
    15    28    29    1
    16    29    30   ar
    17    30    31   ar
    18    31    32   ar
    19    32    33   ar
    20     9    10   ar
    21    10    11   ar
    22    11    12   ar
    23    15    16   ar
    24    16    17   ar
    25    18    20    1
    26    20    21    1
    27    21    22    1
    28    22    23   ar
    29    23    24   ar
    30    24    25   ar
    31    25    26   ar
    32    26    27   ar
    33    17    13   ar
    34    27    22   ar
    35     5     1    1
    36    12     7   ar
    37    12     4    1
    38    33    29   ar
@<TRIPOS>MOLECULE
*****
 33 38 0 0 0
SMALL
GASTEIGER

@<TRIPOS>ATOM
      1 C         138.6822  140.8833  158.4883 C.2     1  UNL1        0.0866
      2 N         138.4996  142.3710  158.4291 N.2     1  UNL1       -0.1523
      3 N         138.3288  142.8732  159.8322 N.2     1  UNL1       -0.1523
      4 C         138.4059  141.6958  160.7585 C.2     1  UNL1        0.0858
      5 C         138.6243  140.4661  159.9279 C.3     1  UNL1        0.0883
      6 C         138.7014  139.2888  160.8542 C.3     1  UNL1        0.0384
      7 C         138.5306  139.7910  162.2573 C.ar    1  UNL1       -0.0205
      8 C         138.5178  139.0858  163.5812 C.ar    1  UNL1       -0.0065
      9 C         138.3224  139.8683  164.8458 C.ar    1  UNL1        0.0018
     10 C         138.1398  141.3560  164.7867 C.ar    1  UNL1       -0.0023
     11 C         138.1526  142.0611  163.4629 C.ar    1  UNL1        0.0007
     12 C         138.3480  141.2786  162.1982 C.ar    1  UNL1        0.0117
     13 C         139.5928  138.1005  155.9402 C.ar    1  UNL1        0.0710
     14 C         139.6400  138.6756  157.3249 C.ar    1  UNL1        0.0165
     15 C         138.8868  139.9727  157.3140 C.ar    1  UNL1        0.0233
     16 C         138.3741  140.1994  155.9227 C.ar    1  UNL1        0.0373
     17 S         138.8105  139.0423  155.0737 S.2     1  UNL1       -0.0780
     18 C         140.8436  135.5201  155.0590 C.1     1  UNL1       -0.0388
     19 C         140.2182  136.8103  155.4996 C.1     1  UNL1       -0.0543
     20 C         141.4690  134.2298  154.6183 C.3     1  UNL1        0.2814
     21 O         141.5133  133.0593  155.5554 O.3     1  UNL1       -0.4612
     22 C         142.7977  132.6937  156.2386 C.ar    1  UNL1        0.1400
     23 C         143.5490  131.4661  155.8160 C.ar    1  UNL1        0.0369
     24 C         144.8333  131.1005  156.4991 C.ar    1  UNL1        0.0031
     25 C         145.3665  131.9625  157.6049 C.ar    1  UNL1        0.0002
     26 C         144.6153  133.1902  158.0275 C.ar    1  UNL1        0.0031
     27 C         143.3309  133.5558  157.3443 C.ar    1  UNL1        0.0369
     28 C         138.3096  139.1632  166.1697 C.3     1  UNL1        0.1538
     29 N         139.1959  139.6399  167.2820 N.ar    1  UNL1       -0.2449
     30 C         140.6210  140.0871  167.1438 C.ar    1  UNL1        0.0971
     31 C         141.1187  140.4768  168.5041 C.ar    1  UNL1        0.0427
     32 C         140.0011  140.2704  169.4831 C.ar    1  UNL1        0.1217
     33 N         138.8128  139.7532  168.7278 N.ar    1  UNL1       -0.1673
@<TRIPOS>BOND
     1    18    19    3
     2    19    13    1
     3    13    14   ar
     4    14    15   ar
     5    15     1    1
     6     1     2    2
     7     2     3    1
     8     3     4    2
     9     4     5    1
    10     5     6    1
    11     6     7    1
    12     7     8   ar
    13     8     9   ar
    14     9    28    1
    15    28    29    1
    16    29    30   ar
    17    30    31   ar
    18    31    32   ar
    19    32    33   ar
    20     9    10   ar
    21    10    11   ar
    22    11    12   ar
    23    15    16   ar
    24    16    17   ar
    25    18    20    1
    26    20    21    1
    27    21    22    1
    28    22    23   ar
    29    23    24   ar
    30    24    25   ar
    31    25    26   ar
    32    26    27   ar
    33    17    13   ar
    34    27    22   ar
    35     5     1    1
    36    12     7   ar
    37    12     4    1
    38    33    29   ar
@<TRIPOS>MOLECULE
*****
 33 38 0 0 0
SMALL
GASTEIGER

@<TRIPOS>ATOM
      1 C         142.7821  143.3092  160.5562 C.2     1  UNL1        0.0866
      2 N         143.9435  142.6852  159.8408 N.2     1  UNL1       -0.1523
      3 N         143.8912  143.1188  158.4058 N.2     1  UNL1       -0.1523
      4 C         142.6975  144.0109  158.2343 C.2     1  UNL1        0.0858
      5 C         142.0121  144.1285  159.5633 C.3     1  UNL1        0.0883
      6 C         140.8184  145.0206  159.3918 C.3     1  UNL1        0.0384
      7 C         140.7661  145.4542  157.9568 C.ar    1  UNL1       -0.0205
      8 C         139.8111  146.3367  157.2092 C.ar    1  UNL1       -0.0065
      9 C         140.0174  146.5951  155.7461 C.ar    1  UNL1        0.0018
     10 C         141.1787  145.9711  155.0307 C.ar    1  UNL1       -0.0023
     11 C         142.1338  145.0886  155.7784 C.ar    1  UNL1        0.0007
     12 C         141.9275  144.8302  157.2414 C.ar    1  UNL1        0.0117
     13 C         141.5283  142.2800  164.0824 C.ar    1  UNL1        0.0710
     14 C         141.5924  142.0625  162.5996 C.ar    1  UNL1        0.0165
     15 C         142.4492  143.1431  162.0093 C.ar    1  UNL1        0.0233
     16 C         142.9145  144.0283  163.1273 C.ar    1  UNL1        0.0373
     17 S         142.3454  143.4949  164.4085 S.2     1  UNL1       -0.0780
     18 C         140.0290  140.5829  166.0503 C.1     1  UNL1       -0.0388
     19 C         140.7786  141.4315  165.0663 C.1     1  UNL1       -0.0543
     20 C         139.2794  139.7344  167.0342 C.3     1  UNL1        0.2814
     21 O         139.6034  139.8179  168.4964 O.3     1  UNL1       -0.4612
     22 C         140.6630  140.7647  168.9769 C.ar    1  UNL1        0.1400
     23 C         140.3090  142.1866  169.2973 C.ar    1  UNL1        0.0369
     24 C         141.3686  143.1334  169.7778 C.ar    1  UNL1        0.0031
     25 C         142.7822  142.6582  169.9379 C.ar    1  UNL1        0.0002
     26 C         143.1364  141.2362  169.6176 C.ar    1  UNL1        0.0031
     27 C         142.0768  140.2894  169.1371 C.ar    1  UNL1        0.0369
     28 C         139.0623  147.4777  154.9984 C.3     1  UNL1        0.1538
     29 N         139.1599  148.9688  155.1290 N.ar    1  UNL1       -0.2449
     30 C         139.9766  149.8784  154.2597 C.ar    1  UNL1        0.0971
     31 C         139.7794  151.2839  154.7453 C.ar    1  UNL1        0.0427
     32 C         138.8410  151.2429  155.9147 C.ar    1  UNL1        0.1217
     33 N         138.4581  149.8121  156.1519 N.ar    1  UNL1       -0.1673
@<TRIPOS>BOND
     1    18    19    3
     2    19    13    1
     3    13    14   ar
     4    14    15   ar
     5    15     1    1
     6     1     2    2
     7     2     3    1
     8     3     4    2
     9     4     5    1
    10     5     6    1
    11     6     7    1
    12     7     8   ar
    13     8     9   ar
    14     9    28    1
    15    28    29    1
    16    29    30   ar
    17    30    31   ar
    18    31    32   ar
    19    32    33   ar
    20     9    10   ar
    21    10    11   ar
    22    11    12   ar
    23    15    16   ar
    24    16    17   ar
    25    18    20    1
    26    20    21    1
    27    21    22    1
    28    22    23   ar
    29    23    24   ar
    30    24    25   ar
    31    25    26   ar
    32    26    27   ar
    33    17    13   ar
    34    27    22   ar
    35     5     1    1
    36    12     7   ar
    37    12     4    1
    38    33    29   ar
@<TRIPOS>MOLECULE
*****
 33 38 0 0 0
SMALL
GASTEIGER

@<TRIPOS>ATOM
      1 C         141.3202  136.5457  155.7298 C.2     1  UNL1        0.0866
      2 N         142.2177  137.4469  156.5250 N.2     1  UNL1       -0.1523
      3 N         143.2456  136.5933  157.2067 N.2     1  UNL1       -0.1523
      4 C         142.9835  135.1645  156.8328 C.2     1  UNL1        0.0858
      5 C         141.7935  135.1351  155.9200 C.3     1  UNL1        0.0883
      6 C         141.5314  133.7062  155.5462 C.3     1  UNL1        0.0384
      7 C         142.5593  132.8526  156.2278 C.ar    1  UNL1       -0.0205
      8 C         142.7940  131.3711  156.2272 C.ar    1  UNL1       -0.0065
      9 C         143.9263  130.7909  157.0217 C.ar    1  UNL1        0.0018
     10 C         144.8237  131.6921  157.8169 C.ar    1  UNL1       -0.0023
     11 C         144.5890  133.1736  157.8176 C.ar    1  UNL1        0.0007
     12 C         143.4568  133.7538  157.0230 C.ar    1  UNL1        0.0117
     13 C         138.1384  138.1084  154.1488 C.ar    1  UNL1        0.0710
     14 C         139.1106  137.9823  155.2842 C.ar    1  UNL1        0.0165
     15 C         140.1542  136.9789  154.8915 C.ar    1  UNL1        0.0233
     16 C         139.8270  136.4849  153.5135 C.ar    1  UNL1        0.0373
     17 S         138.5812  137.1830  153.0545 S.2     1  UNL1       -0.0780
     18 C         135.7312  139.8974  154.0790 C.1     1  UNL1       -0.0388
     19 C         136.9348  139.0029  154.1139 C.1     1  UNL1       -0.0543
     20 C         134.5276  140.7919  154.0441 C.3     1  UNL1        0.2814
     21 O         133.9628  141.3396  155.3213 O.3     1  UNL1       -0.4612
     22 C         132.9972  140.5211  156.1260 C.ar    1  UNL1        0.1400
     23 C         131.5219  140.7577  155.9942 C.ar    1  UNL1        0.0369
     24 C         130.5562  139.9392  156.7990 C.ar    1  UNL1        0.0031
     25 C         131.0658  138.8842  157.7356 C.ar    1  UNL1        0.0002
     26 C         132.5412  138.6476  157.8674 C.ar    1  UNL1        0.0031
     27 C         133.5069  139.4661  157.0627 C.ar    1  UNL1        0.0369
     28 C         144.1611  129.3093  157.0211 C.3     1  UNL1        0.1538
     29 N         143.3335  128.4185  157.8994 N.ar    1  UNL1       -0.2449
     30 C         142.5519  127.2189  157.4521 C.ar    1  UNL1        0.0971
     31 C         141.8775  126.6298  158.6555 C.ar    1  UNL1        0.0427
     32 C         142.2423  127.4653  159.8467 C.ar    1  UNL1        0.1217
     33 N         143.1421  128.5707  159.3794 N.ar    1  UNL1       -0.1673
@<TRIPOS>BOND
     1    18    19    3
     2    19    13    1
     3    13    14   ar
     4    14    15   ar
     5    15     1    1
     6     1     2    2
     7     2     3    1
     8     3     4    2
     9     4     5    1
    10     5     6    1
    11     6     7    1
    12     7     8   ar
    13     8     9   ar
    14     9    28    1
    15    28    29    1
    16    29    30   ar
    17    30    31   ar
    18    31    32   ar
    19    32    33   ar
    20     9    10   ar
    21    10    11   ar
    22    11    12   ar
    23    15    16   ar
    24    16    17   ar
    25    18    20    1
    26    20    21    1
    27    21    22    1
    28    22    23   ar
    29    23    24   ar
    30    24    25   ar
    31    25    26   ar
    32    26    27   ar
    33    17    13   ar
    34    27    22   ar
    35     5     1    1
    36    12     7   ar
    37    12     4    1
    38    33    29   ar
@<TRIPOS>MOLECULE
*****
 33 38 0 0 0
SMALL
GASTEIGER

@<TRIPOS>ATOM
      1 C         142.2386  137.0279  156.9302 C.2     1  UNL1        0.0866
      2 N         141.3525  137.3633  155.7673 N.2     1  UNL1       -0.1523
      3 N         141.0948  136.0996  155.0013 N.2     1  UNL1       -0.1523
      4 C         141.8217  134.9832  155.6908 C.2     1  UNL1        0.0858
      5 C         142.5287  135.5570  156.8828 C.3     1  UNL1        0.0883
      6 C         143.2556  134.4406  157.5723 C.3     1  UNL1        0.0384
      7 C         142.9979  133.1769  156.8063 C.ar    1  UNL1       -0.0205
      8 C         143.4557  131.7642  157.0175 C.ar    1  UNL1       -0.0065
      9 C         143.0274  130.6869  156.0658 C.ar    1  UNL1        0.0018
     10 C         142.1412  131.0222  154.9029 C.ar    1  UNL1       -0.0023
     11 C         141.6834  132.4349  154.6918 C.ar    1  UNL1        0.0007
     12 C         142.1118  133.5123  155.6434 C.ar    1  UNL1        0.0117
     13 C         143.4620  138.9514  160.0716 C.ar    1  UNL1        0.0710
     14 C         142.9401  137.7058  159.4188 C.ar    1  UNL1        0.0165
     15 C         142.7458  137.9939  157.9596 C.ar    1  UNL1        0.0233
     16 C         143.1476  139.4175  157.7106 C.ar    1  UNL1        0.0373
     17 S         143.5903  140.0092  159.0159 S.2     1  UNL1       -0.0780
     18 C         144.1318  139.2708  162.9784 C.1     1  UNL1       -0.0388
     19 C         143.7969  139.1111  161.5250 C.1     1  UNL1       -0.0543
     20 C         144.4667  139.4305  164.4318 C.3     1  UNL1        0.2814
     21 O         143.7442  138.6140  165.4621 O.3     1  UNL1       -0.4612
     22 C         142.2447  138.6128  165.5015 C.ar    1  UNL1        0.1400
     23 C         141.4749  137.5851  164.7260 C.ar    1  UNL1        0.0369
     24 C         139.9754  137.5839  164.7654 C.ar    1  UNL1        0.0031
     25 C         139.2457  138.6103  165.5802 C.ar    1  UNL1        0.0002
     26 C         140.0155  139.6380  166.3557 C.ar    1  UNL1        0.0031
     27 C         141.5150  139.6392  166.3163 C.ar    1  UNL1        0.0369
     28 C         143.4852  129.2741  156.2769 C.3     1  UNL1        0.1538
     29 N         142.9072  128.4575  157.3946 N.ar    1  UNL1       -0.2449
     30 C         143.2187  128.6142  158.8535 C.ar    1  UNL1        0.0971
     31 C         142.4203  127.5944  159.6101 C.ar    1  UNL1        0.0427
     32 C         141.6153  126.8074  158.6188 C.ar    1  UNL1        0.1217
     33 N         141.9163  127.3409  157.2496 N.ar    1  UNL1       -0.1673
@<TRIPOS>BOND
     1    18    19    3
     2    19    13    1
     3    13    14   ar
     4    14    15   ar
     5    15     1    1
     6     1     2    2
     7     2     3    1
     8     3     4    2
     9     4     5    1
    10     5     6    1
    11     6     7    1
    12     7     8   ar
    13     8     9   ar
    14     9    28    1
    15    28    29    1
    16    29    30   ar
    17    30    31   ar
    18    31    32   ar
    19    32    33   ar
    20     9    10   ar
    21    10    11   ar
    22    11    12   ar
    23    15    16   ar
    24    16    17   ar
    25    18    20    1
    26    20    21    1
    27    21    22    1
    28    22    23   ar
    29    23    24   ar
    30    24    25   ar
    31    25    26   ar
    32    26    27   ar
    33    17    13   ar
    34    27    22   ar
    35     5     1    1
    36    12     7   ar
    37    12     4    1
    38    33    29   ar
@<TRIPOS>MOLECULE
*****
 33 38 0 0 0
SMALL
GASTEIGER

@<TRIPOS>ATOM
      1 C         140.7970  143.9896  160.8105 C.2     1  UNL1        0.0866
      2 N         141.4211  145.1527  160.0980 N.2     1  UNL1       -0.1523
      3 N         140.9080  145.1625  158.6885 N.2     1  UNL1       -0.1523
      4 C         139.9666  144.0054  158.5299 C.2     1  UNL1        0.0858
      5 C         139.8980  143.2805  159.8413 C.3     1  UNL1        0.0883
      6 C         138.9567  142.1235  159.6827 C.3     1  UNL1        0.0384
      7 C         138.4435  142.1333  158.2732 C.ar    1  UNL1       -0.0205
      8 C         137.4885  141.2334  157.5465 C.ar    1  UNL1       -0.0065
      9 C         137.1577  141.4966  156.1074 C.ar    1  UNL1        0.0018
     10 C         137.7819  142.6597  155.3949 C.ar    1  UNL1       -0.0023
     11 C         138.7368  143.5596  156.1216 C.ar    1  UNL1        0.0007
     12 C         139.0677  143.2964  157.5608 C.ar    1  UNL1        0.0117
     13 C         141.6351  142.3355  164.2203 C.ar    1  UNL1        0.0710
     14 C         141.5641  142.2867  162.7227 C.ar    1  UNL1        0.0165
     15 C         141.0307  143.6033  162.2409 C.ar    1  UNL1        0.0233
     16 C         140.7720  144.4657  163.4406 C.ar    1  UNL1        0.0373
     17 S         141.1456  143.6821  164.6639 S.2     1  UNL1       -0.0780
     18 C         142.5887  140.1273  166.0132 C.1     1  UNL1       -0.0388
     19 C         142.1119  141.2314  165.1168 C.1     1  UNL1       -0.0543
     20 C         143.0656  139.0232  166.9097 C.3     1  UNL1        0.2814
     21 O         142.9088  139.1439  168.3966 O.3     1  UNL1       -0.4612
     22 C         142.3014  140.3810  168.9888 C.ar    1  UNL1        0.1400
     23 C         143.1686  141.5613  169.3123 C.ar    1  UNL1        0.0369
     24 C         142.5611  142.7984  169.9045 C.ar    1  UNL1        0.0031
     25 C         141.0865  142.8552  170.1730 C.ar    1  UNL1        0.0002
     26 C         140.2192  141.6748  169.8495 C.ar    1  UNL1        0.0031
     27 C         140.8266  140.4377  169.2574 C.ar    1  UNL1        0.0369
     28 C         136.2027  140.5967  155.3806 C.3     1  UNL1        0.1538
     29 N         134.7713  140.5101  155.8208 N.ar    1  UNL1       -0.2449
     30 C         133.6138  141.2383  155.2045 C.ar    1  UNL1        0.0971
     31 C         132.3732  140.8584  155.9573 C.ar    1  UNL1        0.0427
     32 C         132.7641  139.8954  157.0389 C.ar    1  UNL1        0.1217
     33 N         134.2461  139.6801  156.9545 N.ar    1  UNL1       -0.1673
@<TRIPOS>BOND
     1    18    19    3
     2    19    13    1
     3    13    14   ar
     4    14    15   ar
     5    15     1    1
     6     1     2    2
     7     2     3    1
     8     3     4    2
     9     4     5    1
    10     5     6    1
    11     6     7    1
    12     7     8   ar
    13     8     9   ar
    14     9    28    1
    15    28    29    1
    16    29    30   ar
    17    30    31   ar
    18    31    32   ar
    19    32    33   ar
    20     9    10   ar
    21    10    11   ar
    22    11    12   ar
    23    15    16   ar
    24    16    17   ar
    25    18    20    1
    26    20    21    1
    27    21    22    1
    28    22    23   ar
    29    23    24   ar
    30    24    25   ar
    31    25    26   ar
    32    26    27   ar
    33    17    13   ar
    34    27    22   ar
    35     5     1    1
    36    12     7   ar
    37    12     4    1
    38    33    29   ar
@<TRIPOS>MOLECULE
*****
 33 38 0 0 0
SMALL
GASTEIGER

@<TRIPOS>ATOM
      1 C         142.1431  137.2169  156.8314 C.2     1  UNL1        0.0866
      2 N         141.1038  137.4482  155.7748 N.2     1  UNL1       -0.1523
      3 N         140.8054  136.1311  155.1220 N.2     1  UNL1       -0.1523
      4 C         141.6603  135.0858  155.7752 C.2     1  UNL1        0.0858
      5 C         142.4870  135.7569  156.8316 C.3     1  UNL1        0.0883
      6 C         143.3418  134.7116  157.4847 C.3     1  UNL1        0.0384
      7 C         143.0434  133.3944  156.8319 C.ar    1  UNL1       -0.0205
      8 C         143.5838  132.0144  157.0631 C.ar    1  UNL1       -0.0065
      9 C         143.0848  130.8656  156.2377 C.ar    1  UNL1        0.0018
     10 C         142.0456  131.0969  155.1811 C.ar    1  UNL1       -0.0023
     11 C         141.5052  132.4769  154.9499 C.ar    1  UNL1        0.0007
     12 C         142.0041  133.6257  155.7753 C.ar    1  UNL1        0.0117
     13 C         143.5804  139.4048  159.6972 C.ar    1  UNL1        0.0710
     14 C         142.9779  138.1228  159.2037 C.ar    1  UNL1        0.0165
     15 C         142.7347  138.2622  157.7300 C.ar    1  UNL1        0.0233
     16 C         143.1869  139.6302  157.3129 C.ar    1  UNL1        0.0373
     17 S         143.7095  140.3364  158.5287 S.2     1  UNL1       -0.0780
     18 C         144.3857  140.0009  162.5250 C.1     1  UNL1       -0.0388
     19 C         143.9831  139.7028  161.1111 C.1     1  UNL1       -0.0543
     20 C         144.7884  140.2989  163.9389 C.3     1  UNL1        0.2814
     21 O         143.8556  141.0504  164.8418 O.3     1  UNL1       -0.4612
     22 C         143.3467  142.4021  164.4370 C.ar    1  UNL1        0.1400
     23 C         144.2341  143.6052  164.5597 C.ar    1  UNL1        0.0369
     24 C         143.7252  144.9570  164.1549 C.ar    1  UNL1        0.0031
     25 C         142.3290  145.1056  163.6273 C.ar    1  UNL1        0.0002
     26 C         141.4415  143.9025  163.5046 C.ar    1  UNL1        0.0031
     27 C         141.9504  142.5507  163.9094 C.ar    1  UNL1        0.0369
     28 C         143.6252  129.4855  156.4689 C.3     1  UNL1        0.1538
     29 N         143.4908  128.8437  157.8180 N.ar    1  UNL1       -0.2449
     30 C         142.4577  127.8306  158.2134 C.ar    1  UNL1        0.0971
     31 C         142.6942  127.4631  159.6483 C.ar    1  UNL1        0.0427
     32 C         143.8735  128.2490  160.1397 C.ar    1  UNL1        0.1217
     33 N         144.3658  129.1023  159.0085 N.ar    1  UNL1       -0.1673
@<TRIPOS>BOND
     1    18    19    3
     2    19    13    1
     3    13    14   ar
     4    14    15   ar
     5    15     1    1
     6     1     2    2
     7     2     3    1
     8     3     4    2
     9     4     5    1
    10     5     6    1
    11     6     7    1
    12     7     8   ar
    13     8     9   ar
    14     9    28    1
    15    28    29    1
    16    29    30   ar
    17    30    31   ar
    18    31    32   ar
    19    32    33   ar
    20     9    10   ar
    21    10    11   ar
    22    11    12   ar
    23    15    16   ar
    24    16    17   ar
    25    18    20    1
    26    20    21    1
    27    21    22    1
    28    22    23   ar
    29    23    24   ar
    30    24    25   ar
    31    25    26   ar
    32    26    27   ar
    33    17    13   ar
    34    27    22   ar
    35     5     1    1
    36    12     7   ar
    37    12     4    1
    38    33    29   ar
@<TRIPOS>MOLECULE
*****
 33 38 0 0 0
SMALL
GASTEIGER

@<TRIPOS>ATOM
      1 C         142.6320  142.0724  161.2686 C.2     1  UNL1        0.0866
      2 N         143.6039  141.1784  160.5574 N.2     1  UNL1       -0.1523
      3 N         144.1036  140.1616  161.5405 N.2     1  UNL1       -0.1523
      4 C         143.4404  140.4273  162.8595 C.2     1  UNL1        0.0858
      5 C         142.5309  141.6082  162.6914 C.3     1  UNL1        0.0883
      6 C         141.8677  141.8739  164.0104 C.3     1  UNL1        0.0384
      7 C         142.3673  140.8572  164.9936 C.ar    1  UNL1       -0.0205
      8 C         142.0627  140.6300  166.4446 C.ar    1  UNL1       -0.0065
      9 C         142.7302  139.5087  167.1844 C.ar    1  UNL1        0.0018
     10 C         143.7021  138.6147  166.4731 C.ar    1  UNL1       -0.0023
     11 C         144.0067  138.8419  165.0220 C.ar    1  UNL1        0.0007
     12 C         143.3393  139.9631  164.2823 C.ar    1  UNL1        0.0117
     13 C         140.8053  144.6862  159.0557 C.ar    1  UNL1        0.0710
     14 C         141.5433  143.3898  159.2133 C.ar    1  UNL1        0.0165
     15 C         141.8912  143.2278  160.6634 C.ar    1  UNL1        0.0233
     16 C         141.3682  144.4240  161.4020 C.ar    1  UNL1        0.0373
     17 S         140.6970  145.3253  160.4084 S.2     1  UNL1       -0.0780
     18 C         139.7339  145.8042  156.4863 C.1     1  UNL1       -0.0388
     19 C         140.2696  145.2452  157.7710 C.1     1  UNL1       -0.0543
     20 C         139.1982  146.3632  155.2015 C.3     1  UNL1        0.2814
     21 O         140.0002  147.3679  154.4286 O.3     1  UNL1       -0.4612
     22 C         139.5868  148.8097  154.4182 C.ar    1  UNL1        0.1400
     23 C         139.8585  149.6592  153.2122 C.ar    1  UNL1        0.0369
     24 C         139.4451  151.1011  153.2018 C.ar    1  UNL1        0.0031
     25 C         138.7599  151.6935  154.3975 C.ar    1  UNL1        0.0002
     26 C         138.4882  150.8440  155.6036 C.ar    1  UNL1        0.0031
     27 C         138.9016  149.4021  155.6139 C.ar    1  UNL1        0.0369
     28 C         142.4256  139.2815  168.6355 C.3     1  UNL1        0.1538
     29 N         141.3430  140.0729  169.3075 N.ar    1  UNL1       -0.2449
     30 C         141.5422  141.2817  170.1730 C.ar    1  UNL1        0.0971
     31 C         140.1933  141.7503  170.6324 C.ar    1  UNL1        0.0427
     32 C         139.1605  140.8311  170.0508 C.ar    1  UNL1        0.1217
     33 N         139.8710  139.7944  169.2320 N.ar    1  UNL1       -0.1673
@<TRIPOS>BOND
     1    18    19    3
     2    19    13    1
     3    13    14   ar
     4    14    15   ar
     5    15     1    1
     6     1     2    2
     7     2     3    1
     8     3     4    2
     9     4     5    1
    10     5     6    1
    11     6     7    1
    12     7     8   ar
    13     8     9   ar
    14     9    28    1
    15    28    29    1
    16    29    30   ar
    17    30    31   ar
    18    31    32   ar
    19    32    33   ar
    20     9    10   ar
    21    10    11   ar
    22    11    12   ar
    23    15    16   ar
    24    16    17   ar
    25    18    20    1
    26    20    21    1
    27    21    22    1
    28    22    23   ar
    29    23    24   ar
    30    24    25   ar
    31    25    26   ar
    32    26    27   ar
    33    17    13   ar
    34    27    22   ar
    35     5     1    1
    36    12     7   ar
    37    12     4    1
    38    33    29   ar
@<TRIPOS>MOLECULE
*****
 33 38 0 0 0
SMALL
GASTEIGER

@<TRIPOS>ATOM
      1 C         140.3063  144.5127  159.0758 C.2     1  UNL1        0.0866
      2 N         141.0212  145.3758  158.0788 N.2     1  UNL1       -0.1523
      3 N         140.4788  145.0576  156.7169 N.2     1  UNL1       -0.1523
      4 C         139.4286  143.9979  156.8723 C.2     1  UNL1        0.0858
      5 C         139.3220  143.6612  158.3302 C.3     1  UNL1        0.0883
      6 C         138.2718  142.6015  158.4855 C.3     1  UNL1        0.0384
      7 C         137.7293  142.2833  157.1237 C.ar    1  UNL1       -0.0205
      8 C         136.6767  141.3192  156.6627 C.ar    1  UNL1       -0.0065
      9 C         136.3391  141.2182  155.2047 C.ar    1  UNL1        0.0018
     10 C         137.0540  142.0812  154.2077 C.ar    1  UNL1       -0.0023
     11 C         138.1066  143.0453  154.6687 C.ar    1  UNL1        0.0007
     12 C         138.4442  143.1463  156.1267 C.ar    1  UNL1        0.0117
     13 C         141.1892  143.8028  162.7882 C.ar    1  UNL1        0.0710
     14 C         141.1574  143.3888  161.3468 C.ar    1  UNL1        0.0165
     15 C         140.5354  144.5029  160.5582 C.ar    1  UNL1        0.0233
     16 C         140.1828  145.6055  161.5121 C.ar    1  UNL1        0.0373
     17 S         140.5869  145.1728  162.8904 S.2     1  UNL1       -0.0780
     18 C         142.2681  142.1765  165.0666 C.1     1  UNL1       -0.0388
     19 C         141.7286  142.9896  163.9274 C.1     1  UNL1       -0.0543
     20 C         142.8075  141.3633  166.2058 C.3     1  UNL1        0.2814
     21 O         141.9081  140.4155  166.9427 O.3     1  UNL1       -0.4612
     22 C         140.9312  139.5663  166.1848 C.ar    1  UNL1        0.1400
     23 C         139.4630  139.8644  166.2588 C.ar    1  UNL1        0.0369
     24 C         138.4861  139.0152  165.5009 C.ar    1  UNL1        0.0031
     25 C         138.9773  137.8678  164.6690 C.ar    1  UNL1        0.0002
     26 C         140.4456  137.5697  164.5949 C.ar    1  UNL1        0.0031
     27 C         141.4225  138.4189  165.3528 C.ar    1  UNL1        0.0369
     28 C         135.2864  140.2540  154.7437 C.3     1  UNL1        0.1538
     29 N         134.0774  140.0004  155.5945 N.ar    1  UNL1       -0.2449
     30 C         132.8843  140.9006  155.7218 C.ar    1  UNL1        0.0971
     31 C         131.9186  140.2586  156.6734 C.ar    1  UNL1        0.0427
     32 C         132.5149  138.9616  157.1341 C.ar    1  UNL1        0.1217
     33 N         133.8491  138.8021  156.4673 N.ar    1  UNL1       -0.1673
@<TRIPOS>BOND
     1    18    19    3
     2    19    13    1
     3    13    14   ar
     4    14    15   ar
     5    15     1    1
     6     1     2    2
     7     2     3    1
     8     3     4    2
     9     4     5    1
    10     5     6    1
    11     6     7    1
    12     7     8   ar
    13     8     9   ar
    14     9    28    1
    15    28    29    1
    16    29    30   ar
    17    30    31   ar
    18    31    32   ar
    19    32    33   ar
    20     9    10   ar
    21    10    11   ar
    22    11    12   ar
    23    15    16   ar
    24    16    17   ar
    25    18    20    1
    26    20    21    1
    27    21    22    1
    28    22    23   ar
    29    23    24   ar
    30    24    25   ar
    31    25    26   ar
    32    26    27   ar
    33    17    13   ar
    34    27    22   ar
    35     5     1    1
    36    12     7   ar
    37    12     4    1
    38    33    29   ar
