@<TRIPOS>MOLECULE
*****
 22 22 0 0 0
SMALL
GASTEIGER

@<TRIPOS>ATOM
      1 C         137.4958  141.4369  163.2374 C.3     1  UNL1        0.0985
      2 C         138.0007  140.1521  163.8242 C.2     1  UNL1       -0.0134
      3 C         138.0894  139.9913  165.3130 C.2     1  UNL1       -0.0290
      4 C         138.5943  138.7066  165.8998 C.3     1  UNL1        0.0304
      5 C         139.5585  137.8567  165.1266 C.3     1  UNL1        0.0310
      6 C         140.9660  138.3277  164.9091 C.ar    1  UNL1       -0.0218
      7 C         141.6432  138.0847  163.5930 C.ar    1  UNL1       -0.0034
      8 C         143.0506  138.5557  163.3755 C.ar    1  UNL1        0.0111
      9 C         143.7808  139.2696  164.4741 C.ar    1  UNL1        0.0577
     10 CL        145.1883  139.7406  164.2566 Cl      1  UNL1       -0.0822
     11 C         143.1036  139.5126  165.7903 C.ar    1  UNL1        0.0111
     12 C         141.6962  139.0416  166.0078 C.ar    1  UNL1       -0.0034
     13 N         138.4441  142.5727  162.9911 N.3     1  UNL1       -0.2690
     14 C         138.0704  143.9650  163.4055 C.3     1  UNL1        0.0724
     15 C         137.8426  144.2807  164.8541 C.3     1  UNL1        0.0188
     16 C         139.7661  142.3162  162.3303 C.3     1  UNL1        0.0724
     17 C         140.8752  141.6629  163.1004 C.3     1  UNL1        0.0173
     18 C         141.8744  142.5052  163.8366 C.3     1  UNL1        0.0014
     19 C         141.5145  143.1098  165.1614 C.3     1  UNL1        0.0000
     20 C         140.5981  142.3772  166.0960 C.3     1  UNL1        0.0000
     21 C         140.1829  141.5057  168.5081 C.3     1  UNL1        0.0000
     22 C         140.7583  142.5334  167.5792 C.3     1  UNL1        0.0000
@<TRIPOS>BOND
     1    21    22    1
     2    22    20    1
     3    20    19    1
     4    19    18    1
     5    18    17    1
     6    17    16    1
     7    16    13    1
     8    13    14    1
     9    14    15    1
    10    13     1    1
    11     1     2    1
    12     2     3    2
    13     3     4    1
    14     4     5    1
    15     5     6    1
    16     6     7   ar
    17     7     8   ar
    18     8     9   ar
    19     9    10    1
    20     9    11   ar
    21    11    12   ar
    22    12     6   ar
@<TRIPOS>MOLECULE
*****
 22 22 0 0 0
SMALL
GASTEIGER

@<TRIPOS>ATOM
      1 C         137.8219  140.1637  162.6126 C.3     1  UNL1        0.0985
      2 C         137.9636  141.6557  162.6746 C.2     1  UNL1       -0.0134
      3 C         137.6606  142.3855  163.9497 C.2     1  UNL1       -0.0290
      4 C         137.8023  143.8775  164.0118 C.3     1  UNL1        0.0304
      5 C         138.7843  144.4988  164.9602 C.3     1  UNL1        0.0310
      6 C         140.2106  144.0344  164.9737 C.ar    1  UNL1       -0.0218
      7 C         141.1835  144.5707  163.9659 C.ar    1  UNL1       -0.0034
      8 C         142.6098  144.1063  163.9795 C.ar    1  UNL1        0.0111
      9 C         143.0631  143.1057  165.0008 C.ar    1  UNL1        0.0577
     10 CL        144.4893  142.6413  165.0144 Cl      1  UNL1       -0.0822
     11 C         142.0901  142.5694  166.0086 C.ar    1  UNL1        0.0111
     12 C         140.6638  143.0337  165.9951 C.ar    1  UNL1       -0.0034
     13 N         139.0290  139.2883  162.7755 N.3     1  UNL1       -0.2690
     14 C         140.3640  139.7502  162.2712 C.3     1  UNL1        0.0724
     15 C         141.3590  140.3476  163.2216 C.3     1  UNL1        0.0188
     16 C         138.9010  137.9508  163.4426 C.3     1  UNL1        0.0724
     17 C         139.1300  137.8245  164.9196 C.3     1  UNL1        0.0173
     18 C         138.2906  138.6150  165.8790 C.3     1  UNL1        0.0014
     19 C         138.8304  139.8770  166.4841 C.3     1  UNL1        0.0000
     20 C         139.8356  139.8057  167.5952 C.3     1  UNL1        0.0000
     21 C         139.9901  141.6165  169.4519 C.3     1  UNL1        0.0000
     22 C         139.4738  140.2945  168.9664 C.3     1  UNL1        0.0000
@<TRIPOS>BOND
     1    21    22    1
     2    22    20    1
     3    20    19    1
     4    19    18    1
     5    18    17    1
     6    17    16    1
     7    16    13    1
     8    13    14    1
     9    14    15    1
    10    13     1    1
    11     1     2    1
    12     2     3    2
    13     3     4    1
    14     4     5    1
    15     5     6    1
    16     6     7   ar
    17     7     8   ar
    18     8     9   ar
    19     9    10    1
    20     9    11   ar
    21    11    12   ar
    22    12     6   ar
@<TRIPOS>MOLECULE
*****
 22 22 0 0 0
SMALL
GASTEIGER

@<TRIPOS>ATOM
      1 C         140.4645  137.5996  163.8789 C.3     1  UNL1        0.0985
      2 C         141.5429  137.6374  164.9209 C.2     1  UNL1       -0.0134
      3 C         142.2931  138.9107  165.1779 C.2     1  UNL1       -0.0290
      4 C         143.3715  138.9485  166.2199 C.3     1  UNL1        0.0304
      5 C         143.0080  139.0389  167.6723 C.3     1  UNL1        0.0310
      6 C         142.3290  140.2677  168.2006 C.ar    1  UNL1       -0.0218
      7 C         143.1476  141.4144  168.7151 C.ar    1  UNL1       -0.0034
      8 C         142.4686  142.6432  169.2433 C.ar    1  UNL1        0.0111
      9 C         140.9709  142.7252  169.2570 C.ar    1  UNL1        0.0577
     10 CL        140.2919  143.9540  169.7852 Cl      1  UNL1       -0.0822
     11 C         140.1523  141.5785  168.7424 C.ar    1  UNL1        0.0111
     12 C         140.8313  140.3497  168.2142 C.ar    1  UNL1       -0.0034
     13 N         139.0773  138.0584  164.2181 N.3     1  UNL1       -0.2690
     14 C         138.3487  137.4489  165.3790 C.3     1  UNL1        0.0724
     15 C         137.9703  138.2979  166.5564 C.3     1  UNL1        0.0188
     16 C         138.4187  139.1266  163.3965 C.3     1  UNL1        0.0724
     17 C         138.8696  140.5520  163.5189 C.3     1  UNL1        0.0173
     18 C         139.1935  141.1228  164.8677 C.3     1  UNL1        0.0014
     19 C         139.1277  142.6048  165.0903 C.3     1  UNL1        0.0000
     20 C         140.3541  143.3537  165.5205 C.3     1  UNL1        0.0000
     21 C         142.4962  142.7067  164.2004 C.3     1  UNL1        0.0000
     22 C         141.6966  142.6867  165.4694 C.3     1  UNL1        0.0000
@<TRIPOS>BOND
     1    21    22    1
     2    22    20    1
     3    20    19    1
     4    19    18    1
     5    18    17    1
     6    17    16    1
     7    16    13    1
     8    13    14    1
     9    14    15    1
    10    13     1    1
    11     1     2    1
    12     2     3    2
    13     3     4    1
    14     4     5    1
    15     5     6    1
    16     6     7   ar
    17     7     8   ar
    18     8     9   ar
    19     9    10    1
    20     9    11   ar
    21    11    12   ar
    22    12     6   ar
@<TRIPOS>MOLECULE
*****
 22 22 0 0 0
SMALL
GASTEIGER

@<TRIPOS>ATOM
      1 C         142.2373  142.2439  165.2292 C.3     1  UNL1        0.0985
      2 C         141.2233  143.2947  164.8862 C.2     1  UNL1       -0.0134
      3 C         139.9899  143.4492  165.7260 C.2     1  UNL1       -0.0290
      4 C         138.9759  144.5000  165.3830 C.3     1  UNL1        0.0304
      5 C         137.7513  144.1327  164.5985 C.3     1  UNL1        0.0310
      6 C         137.8436  143.1233  163.4929 C.ar    1  UNL1       -0.0218
      7 C         137.3699  141.7181  163.7187 C.ar    1  UNL1       -0.0034
      8 C         137.4622  140.7087  162.6130 C.ar    1  UNL1        0.0111
      9 C         138.0282  141.1044  161.2815 C.ar    1  UNL1        0.0577
     10 CL        138.1205  140.0950  160.1758 Cl      1  UNL1       -0.0822
     11 C         138.5019  142.5096  161.0557 C.ar    1  UNL1        0.0111
     12 C         138.4096  143.5190  162.1613 C.ar    1  UNL1       -0.0034
     13 N         142.0750  140.8466  164.7086 N.3     1  UNL1       -0.2690
     14 C         143.0144  139.7659  165.1553 C.3     1  UNL1        0.0724
     15 C         142.8797  139.1750  166.5274 C.3     1  UNL1        0.0188
     16 C         140.9731  140.5299  163.7412 C.3     1  UNL1        0.0724
     17 C         140.9860  139.2327  162.9882 C.3     1  UNL1        0.0173
     18 C         140.0020  138.1549  163.3343 C.3     1  UNL1        0.0014
     19 C         139.9104  137.6470  164.7428 C.3     1  UNL1        0.0000
     20 C         138.6376  137.8136  165.5189 C.3     1  UNL1        0.0000
     21 C         139.2363  139.8586  167.0054 C.3     1  UNL1        0.0000
     22 C         138.2785  139.1524  166.0921 C.3     1  UNL1        0.0000
@<TRIPOS>BOND
     1    21    22    1
     2    22    20    1
     3    20    19    1
     4    19    18    1
     5    18    17    1
     6    17    16    1
     7    16    13    1
     8    13    14    1
     9    14    15    1
    10    13     1    1
    11     1     2    1
    12     2     3    2
    13     3     4    1
    14     4     5    1
    15     5     6    1
    16     6     7   ar
    17     7     8   ar
    18     8     9   ar
    19     9    10    1
    20     9    11   ar
    21    11    12   ar
    22    12     6   ar
@<TRIPOS>MOLECULE
*****
 22 22 0 0 0
SMALL
GASTEIGER

@<TRIPOS>ATOM
      1 C         140.6689  137.6850  163.0113 C.3     1  UNL1        0.0985
      2 C         141.7533  137.5871  164.0431 C.2     1  UNL1       -0.0134
      3 C         142.4854  138.8210  164.4810 C.2     1  UNL1       -0.0290
      4 C         143.5697  138.7232  165.5128 C.3     1  UNL1        0.0304
      5 C         143.2146  138.6157  166.9661 C.3     1  UNL1        0.0310
      6 C         142.7338  139.8249  167.7122 C.ar    1  UNL1       -0.0218
      7 C         142.0348  139.6645  169.0296 C.ar    1  UNL1       -0.0034
      8 C         141.5540  140.8738  169.7756 C.ar    1  UNL1        0.0111
      9 C         141.7723  142.2434  169.2043 C.ar    1  UNL1        0.0577
     10 CL        141.2915  143.4526  169.9503 Cl      1  UNL1       -0.0822
     11 C         142.4714  142.4038  167.8869 C.ar    1  UNL1        0.0111
     12 C         142.9521  141.1945  167.1409 C.ar    1  UNL1       -0.0034
     13 N         139.2326  137.7582  163.4374 N.3     1  UNL1       -0.2690
     14 C         138.1638  138.0469  162.4253 C.3     1  UNL1        0.0724
     15 C         138.0803  139.4026  161.7886 C.3     1  UNL1        0.0188
     16 C         138.8650  137.5427  164.8756 C.3     1  UNL1        0.0724
     17 C         138.2833  138.6687  165.6779 C.3     1  UNL1        0.0173
     18 C         139.1684  139.4930  166.5649 C.3     1  UNL1        0.0014
     19 C         139.5335  140.8928  166.1681 C.3     1  UNL1        0.0000
     20 C         139.2059  141.3918  164.7920 C.3     1  UNL1        0.0000
     21 C         137.5188  142.6769  163.2912 C.3     1  UNL1        0.0000
     22 C         138.2048  142.4943  164.6126 C.3     1  UNL1        0.0000
@<TRIPOS>BOND
     1    21    22    1
     2    22    20    1
     3    20    19    1
     4    19    18    1
     5    18    17    1
     6    17    16    1
     7    16    13    1
     8    13    14    1
     9    14    15    1
    10    13     1    1
    11     1     2    1
    12     2     3    2
    13     3     4    1
    14     4     5    1
    15     5     6    1
    16     6     7   ar
    17     7     8   ar
    18     8     9   ar
    19     9    10    1
    20     9    11   ar
    21    11    12   ar
    22    12     6   ar
@<TRIPOS>MOLECULE
*****
 22 22 0 0 0
SMALL
GASTEIGER

@<TRIPOS>ATOM
      1 C         138.8659  141.6051  163.2533 C.3     1  UNL1        0.0985
      2 C         139.3120  140.6083  164.2816 C.2     1  UNL1       -0.0134
      3 C         138.5094  140.4118  165.5335 C.2     1  UNL1       -0.0290
      4 C         138.9555  139.4150  166.5617 C.3     1  UNL1        0.0304
      5 C         139.1124  139.8336  167.9935 C.3     1  UNL1        0.0310
      6 C         140.3730  140.5110  168.4430 C.ar    1  UNL1       -0.0218
      7 C         141.5568  139.6907  168.8622 C.ar    1  UNL1       -0.0034
      8 C         142.8174  140.3681  169.3117 C.ar    1  UNL1        0.0111
      9 C         142.8942  141.8658  169.3421 C.ar    1  UNL1        0.0577
     10 CL        144.1548  142.5432  169.7916 Cl      1  UNL1       -0.0822
     11 C         141.7104  142.6861  168.9229 C.ar    1  UNL1        0.0111
     12 C         140.4498  142.0087  168.4734 C.ar    1  UNL1       -0.0034
     13 N         139.2727  143.0435  163.3772 N.3     1  UNL1       -0.2690
     14 C         138.3572  144.0271  164.0438 C.3     1  UNL1        0.0724
     15 C         138.7618  144.6714  165.3366 C.3     1  UNL1        0.0188
     16 C         140.5951  143.4985  162.8346 C.3     1  UNL1        0.0724
     17 C         141.8685  143.0467  163.4858 C.3     1  UNL1        0.0173
     18 C         141.9295  142.8751  164.9747 C.3     1  UNL1        0.0014
     19 C         142.9488  141.9578  165.5828 C.3     1  UNL1        0.0000
     20 C         142.7712  140.4713  165.4882 C.3     1  UNL1        0.0000
     21 C         144.8845  140.0879  164.0263 C.3     1  UNL1        0.0000
     22 C         143.9209  139.6039  165.0690 C.3     1  UNL1        0.0000
@<TRIPOS>BOND
     1    21    22    1
     2    22    20    1
     3    20    19    1
     4    19    18    1
     5    18    17    1
     6    17    16    1
     7    16    13    1
     8    13    14    1
     9    14    15    1
    10    13     1    1
    11     1     2    1
    12     2     3    2
    13     3     4    1
    14     4     5    1
    15     5     6    1
    16     6     7   ar
    17     7     8   ar
    18     8     9   ar
    19     9    10    1
    20     9    11   ar
    21    11    12   ar
    22    12     6   ar
@<TRIPOS>MOLECULE
*****
 22 22 0 0 0
SMALL
GASTEIGER

@<TRIPOS>ATOM
      1 C         137.6207  141.6414  162.8789 C.3     1  UNL1        0.0985
      2 C         137.7227  140.3671  163.6637 C.2     1  UNL1       -0.0134
      3 C         138.2031  140.3977  165.0844 C.2     1  UNL1       -0.0290
      4 C         138.3051  139.1234  165.8692 C.3     1  UNL1        0.0304
      5 C         138.8954  137.8982  165.2366 C.3     1  UNL1        0.0310
      6 C         140.1688  137.9995  164.4503 C.ar    1  UNL1       -0.0218
      7 C         141.4400  138.4119  165.1313 C.ar    1  UNL1       -0.0034
      8 C         142.7134  138.5132  164.3450 C.ar    1  UNL1        0.0111
      9 C         142.7155  138.2022  162.8776 C.ar    1  UNL1        0.0577
     10 CL        143.9889  138.3035  162.0913 Cl      1  UNL1       -0.0822
     11 C         141.4443  137.7898  162.1966 C.ar    1  UNL1        0.0111
     12 C         140.1709  137.6885  162.9829 C.ar    1  UNL1       -0.0034
     13 N         138.7991  142.5655  162.7928 N.3     1  UNL1       -0.2690
     14 C         138.7023  143.9575  163.3432 C.3     1  UNL1        0.0724
     15 C         138.1654  144.1816  164.7258 C.3     1  UNL1        0.0188
     16 C         140.0742  142.0976  162.1561 C.3     1  UNL1        0.0724
     17 C         141.2173  141.6416  163.0136 C.3     1  UNL1        0.0173
     18 C         141.2497  141.9961  164.4708 C.3     1  UNL1        0.0014
     19 C         142.3425  142.8738  165.0050 C.3     1  UNL1        0.0000
     20 C         143.6821  142.2860  165.3364 C.3     1  UNL1        0.0000
     21 C         145.5051  141.1053  163.9106 C.3     1  UNL1        0.0000
     22 C         144.8002  142.3582  164.3391 C.3     1  UNL1        0.0000
@<TRIPOS>BOND
     1    21    22    1
     2    22    20    1
     3    20    19    1
     4    19    18    1
     5    18    17    1
     6    17    16    1
     7    16    13    1
     8    13    14    1
     9    14    15    1
    10    13     1    1
    11     1     2    1
    12     2     3    2
    13     3     4    1
    14     4     5    1
    15     5     6    1
    16     6     7   ar
    17     7     8   ar
    18     8     9   ar
    19     9    10    1
    20     9    11   ar
    21    11    12   ar
    22    12     6   ar
@<TRIPOS>MOLECULE
*****
 22 22 0 0 0
SMALL
GASTEIGER

@<TRIPOS>ATOM
      1 C         140.7703  140.5328  168.4770 C.3     1  UNL1        0.0985
      2 C         140.1109  139.8101  167.3400 C.2     1  UNL1       -0.0134
      3 C         138.6571  139.4498  167.4228 C.2     1  UNL1       -0.0290
      4 C         137.9976  138.7271  166.2858 C.3     1  UNL1        0.0304
      5 C         138.6515  137.5177  165.6859 C.3     1  UNL1        0.0310
      6 C         139.4725  137.6506  164.4375 C.ar    1  UNL1       -0.0218
      7 C         138.7960  137.8181  163.1093 C.ar    1  UNL1       -0.0034
      8 C         139.6170  137.9509  161.8609 C.ar    1  UNL1        0.0111
      9 C         141.1144  137.9164  161.9409 C.ar    1  UNL1        0.0577
     10 CL        141.9354  138.0493  160.6926 Cl      1  UNL1       -0.0822
     11 C         141.7909  137.7489  163.2691 C.ar    1  UNL1        0.0111
     12 C         140.9699  137.6161  164.5175 C.ar    1  UNL1       -0.0034
     13 N         141.3357  141.9060  168.2657 N.3     1  UNL1       -0.2690
     14 C         140.5069  143.1153  168.5826 C.3     1  UNL1        0.0724
     15 C         140.4482  143.6372  169.9877 C.3     1  UNL1        0.0188
     16 C         142.7301  142.0698  167.7373 C.3     1  UNL1        0.0724
     17 C         143.0040  141.8868  166.2740 C.3     1  UNL1        0.0173
     18 C         142.3245  142.7676  165.2679 C.3     1  UNL1        0.0014
     19 C         140.8871  142.5287  164.9112 C.3     1  UNL1        0.0000
     20 C         140.5144  141.3689  164.0361 C.3     1  UNL1        0.0000
     21 C         137.9294  141.4079  163.7784 C.3     1  UNL1        0.0000
     22 C         139.2970  141.4488  163.1634 C.3     1  UNL1        0.0000
@<TRIPOS>BOND
     1    21    22    1
     2    22    20    1
     3    20    19    1
     4    19    18    1
     5    18    17    1
     6    17    16    1
     7    16    13    1
     8    13    14    1
     9    14    15    1
    10    13     1    1
    11     1     2    1
    12     2     3    2
    13     3     4    1
    14     4     5    1
    15     5     6    1
    16     6     7   ar
    17     7     8   ar
    18     8     9   ar
    19     9    10    1
    20     9    11   ar
    21    11    12   ar
    22    12     6   ar
@<TRIPOS>MOLECULE
*****
 22 22 0 0 0
SMALL
GASTEIGER

@<TRIPOS>ATOM
      1 C         141.9828  144.4933  164.0682 C.3     1  UNL1        0.0985
      2 C         143.1463  143.7906  163.4338 C.2     1  UNL1       -0.0134
      3 C         144.0371  142.9148  164.2643 C.2     1  UNL1       -0.0290
      4 C         145.2006  142.2121  163.6299 C.3     1  UNL1        0.0304
      5 C         145.4568  140.7649  163.9295 C.3     1  UNL1        0.0310
      6 C         144.3056  139.8161  164.0857 C.ar    1  UNL1       -0.0218
      7 C         143.9037  139.3427  165.4511 C.ar    1  UNL1       -0.0034
      8 C         142.7525  138.3939  165.6072 C.ar    1  UNL1        0.0111
      9 C         142.0031  137.9184  164.3979 C.ar    1  UNL1        0.0577
     10 CL        140.8518  136.9696  164.5541 Cl      1  UNL1       -0.0822
     11 C         142.4049  138.3919  163.0326 C.ar    1  UNL1        0.0111
     12 C         143.5562  139.3407  162.8764 C.ar    1  UNL1       -0.0034
     13 N         140.5947  143.9514  163.8961 N.3     1  UNL1       -0.2690
     14 C         139.4084  144.8325  164.1534 C.3     1  UNL1        0.0724
     15 C         138.2579  144.3219  164.9694 C.3     1  UNL1        0.0188
     16 C         140.3930  142.5284  163.4666 C.3     1  UNL1        0.0724
     17 C         140.5411  141.4163  164.4622 C.3     1  UNL1        0.0173
     18 C         140.9807  141.7184  165.8641 C.3     1  UNL1        0.0014
     19 C         140.0684  141.4204  167.0170 C.3     1  UNL1        0.0000
     20 C         139.9224  140.0125  167.5133 C.3     1  UNL1        0.0000
     21 C         138.1428  138.7642  166.0903 C.3     1  UNL1        0.0000
     22 C         138.5990  139.3141  167.4093 C.3     1  UNL1        0.0000
@<TRIPOS>BOND
     1    21    22    1
     2    22    20    1
     3    20    19    1
     4    19    18    1
     5    18    17    1
     6    17    16    1
     7    16    13    1
     8    13    14    1
     9    14    15    1
    10    13     1    1
    11     1     2    1
    12     2     3    2
    13     3     4    1
    14     4     5    1
    15     5     6    1
    16     6     7   ar
    17     7     8   ar
    18     8     9   ar
    19     9    10    1
    20     9    11   ar
    21    11    12   ar
    22    12     6   ar
