@<TRIPOS>MOLECULE
*****
 31 35 0 0 0
SMALL
GASTEIGER

@<TRIPOS>ATOM
      1 C         138.1444  139.5163  161.4122 C.3     1  UNL1        0.0731
      2 N         140.1211  143.4032  164.5522 N.pl3   1  UNL1       -0.3079
      3 C         139.0522  144.2401  165.1901 C.3     1  UNL1        0.0909
      4 C         137.7215  143.7151  164.7388 C.3     1  UNL1        0.0245
      5 C         137.9681  142.5538  163.8220 C.3     1  UNL1        0.0372
      6 C         137.2981  141.5115  162.9765 C.3     1  UNL1        0.0738
      7 N         138.3670  140.6747  162.3386 N.3     1  UNL1       -0.2712
      8 C         139.6977  141.1996  162.7899 C.3     1  UNL1        0.0921
      9 C         139.4511  142.3610  163.7067 C.3     1  UNL1        0.0900
     10 C         141.5807  145.5065  162.9882 C.3     1  UNL1        0.0323
     11 C         142.3302  144.6295  163.9468 C.ar    1  UNL1       -0.0085
     12 C         143.8095  144.8040  164.1235 C.ar    1  UNL1       -0.0030
     13 C         144.5591  143.9270  165.0821 C.ar    1  UNL1       -0.0002
     14 C         143.8293  142.8754  165.8641 C.ar    1  UNL1        0.0012
     15 C         142.3500  142.7008  165.6875 C.ar    1  UNL1        0.0142
     16 C         141.6004  143.5778  164.7288 C.ar    1  UNL1        0.0438
     17 C         138.7211  138.1712  161.7412 C.3     1  UNL1        0.0294
     18 C         138.5238  137.5845  163.1075 C.3     1  UNL1        0.0666
     19 S         139.5916  137.7362  164.1501 S.3     1  UNL1       -0.0756
     20 C         139.2595  138.3433  165.4809 C.ar    1  UNL1        0.1933
     21 N         137.9489  138.2261  166.2011 N.ar    1  UNL1       -0.1221
     22 N         138.0590  138.9847  167.4905 N.ar    1  UNL1       -0.1266
     23 C         139.4377  139.5706  167.5673 C.ar    1  UNL1        0.1862
     24 N         140.1796  139.1742  166.3253 N.ar    1  UNL1       -0.2872
     25 C         141.5934  139.5439  165.9871 C.3     1  UNL1        0.1340
     26 C         139.9794  140.4062  168.6890 C.ar    1  UNL1        0.1362
     27 C         140.2074  141.8750  168.4876 C.ar    1  UNL1        0.1211
     28 N         140.7491  142.7106  169.6095 N.ar    1  UNL1       -0.2390
     29 C         141.0628  142.0774  170.9326 C.ar    1  UNL1        0.1195
     30 C         140.8348  140.6085  171.1339 C.ar    1  UNL1        0.1196
     31 N         140.2931  139.7729  170.0122 N.ar    1  UNL1       -0.2375
@<TRIPOS>BOND
     1    10    11    1
     2    11    12   ar
     3    12    13   ar
     4    13    14   ar
     5    14    15   ar
     6    15    16   ar
     7    16     2    1
     8     2     3    1
     9     3     4    1
    10     4     5    1
    11     5     6    1
    12     6     7    1
    13     7     1    1
    14     1    17    1
    15    17    18    1
    16    18    19    1
    17    19    20    1
    18    20    21   ar
    19    21    22   ar
    20    22    23   ar
    21    23    26    1
    22    26    27   ar
    23    27    28   ar
    24    28    29   ar
    25    29    30   ar
    26    30    31   ar
    27    23    24   ar
    28    24    25    1
    29     7     8    1
    30     8     9    1
    31    16    11   ar
    32     9     2    1
    33     9     5    1
    34    24    20   ar
    35    31    26   ar
@<TRIPOS>MOLECULE
*****
 31 35 0 0 0
SMALL
GASTEIGER

@<TRIPOS>ATOM
      1 C         142.6615  137.7649  161.9049 C.3     1  UNL1        0.0731
      2 N         139.0330  140.2661  164.9797 N.pl3   1  UNL1       -0.3079
      3 C         138.2537  139.3240  165.8486 C.3     1  UNL1        0.0909
      4 C         138.7452  137.9324  165.5805 C.3     1  UNL1        0.0245
      5 C         139.8282  138.0144  164.5459 C.3     1  UNL1        0.0372
      6 C         140.8013  137.2051  163.7409 C.3     1  UNL1        0.0738
      7 N         141.5805  138.1472  162.8720 N.3     1  UNL1       -0.2712
      8 C         141.0892  139.5388  163.1400 C.3     1  UNL1        0.0921
      9 C         140.0061  139.4568  164.1746 C.3     1  UNL1        0.0900
     10 C         137.1726  141.4975  162.9740 C.3     1  UNL1        0.0323
     11 C         137.9380  142.3717  163.9225 C.ar    1  UNL1       -0.0085
     12 C         137.7733  143.8617  163.8682 C.ar    1  UNL1       -0.0030
     13 C         138.5387  144.7360  164.8167 C.ar    1  UNL1       -0.0002
     14 C         139.4690  144.1204  165.8195 C.ar    1  UNL1        0.0012
     15 C         139.6337  142.6304  165.8738 C.ar    1  UNL1        0.0142
     16 C         138.8683  141.7561  164.9253 C.ar    1  UNL1        0.0438
     17 C         143.8615  138.6483  161.7337 C.3     1  UNL1        0.0294
     18 C         144.0917  139.7919  162.6767 C.3     1  UNL1        0.0666
     19 S         144.8385  139.5684  163.9583 S.3     1  UNL1       -0.0756
     20 C         144.0915  139.4813  165.2562 C.ar    1  UNL1        0.1933
     21 N         144.0327  138.2865  166.1612 N.ar    1  UNL1       -0.1221
     22 N         143.1771  138.6404  167.3413 N.ar    1  UNL1       -0.1266
     23 C         142.7070  140.0540  167.1656 C.ar    1  UNL1        0.1862
     24 N         143.2722  140.5737  165.8770 N.ar    1  UNL1       -0.2872
     25 C         143.0559  141.9450  165.3089 C.3     1  UNL1        0.1340
     26 C         141.8264  140.8144  168.1124 C.ar    1  UNL1        0.1362
     27 C         140.5150  140.2318  168.5488 C.ar    1  UNL1        0.1211
     28 N         139.6344  140.9923  169.4955 N.ar    1  UNL1       -0.2390
     29 C         140.0653  142.3353  170.0058 C.ar    1  UNL1        0.1195
     30 C         141.3768  142.9180  169.5694 C.ar    1  UNL1        0.1196
     31 N         142.2574  142.1576  168.6227 N.ar    1  UNL1       -0.2375
@<TRIPOS>BOND
     1    10    11    1
     2    11    12   ar
     3    12    13   ar
     4    13    14   ar
     5    14    15   ar
     6    15    16   ar
     7    16     2    1
     8     2     3    1
     9     3     4    1
    10     4     5    1
    11     5     6    1
    12     6     7    1
    13     7     1    1
    14     1    17    1
    15    17    18    1
    16    18    19    1
    17    19    20    1
    18    20    21   ar
    19    21    22   ar
    20    22    23   ar
    21    23    26    1
    22    26    27   ar
    23    27    28   ar
    24    28    29   ar
    25    29    30   ar
    26    30    31   ar
    27    23    24   ar
    28    24    25    1
    29     7     8    1
    30     8     9    1
    31    16    11   ar
    32     9     2    1
    33     9     5    1
    34    24    20   ar
    35    31    26   ar
@<TRIPOS>MOLECULE
*****
 31 35 0 0 0
SMALL
GASTEIGER

@<TRIPOS>ATOM
      1 C         143.2194  144.3505  163.0338 C.3     1  UNL1        0.0731
      2 N         138.6501  141.5631  163.5107 N.pl3   1  UNL1       -0.3079
      3 C         137.4544  142.3072  162.9941 C.3     1  UNL1        0.0909
      4 C         137.9209  143.6403  162.4890 C.3     1  UNL1        0.0245
      5 C         139.4047  143.7202  162.6933 C.3     1  UNL1        0.0372
      6 C         140.6101  144.5934  162.5075 C.3     1  UNL1        0.0738
      7 N         141.8056  143.8494  163.0241 N.3     1  UNL1       -0.2712
      8 C         141.3393  142.5163  163.5292 C.3     1  UNL1        0.0921
      9 C         139.8554  142.4364  163.3248 C.3     1  UNL1        0.0900
     10 C         139.4611  139.2009  161.8487 C.3     1  UNL1        0.0323
     11 C         139.0473  139.0062  163.2773 C.ar    1  UNL1       -0.0085
     12 C         139.0390  137.6304  163.8749 C.ar    1  UNL1       -0.0030
     13 C         138.6253  137.4357  165.3035 C.ar    1  UNL1       -0.0002
     14 C         138.2198  138.6168  166.1345 C.ar    1  UNL1        0.0012
     15 C         138.2280  139.9926  165.5369 C.ar    1  UNL1        0.0142
     16 C         138.6418  140.1873  164.1083 C.ar    1  UNL1        0.0438
     17 C         144.2400  143.7338  162.1239 C.3     1  UNL1        0.0294
     18 C         144.5992  142.2850  162.2723 C.3     1  UNL1        0.0666
     19 S         145.2483  141.7987  163.5341 S.3     1  UNL1       -0.0756
     20 C         144.5069  140.8694  164.4489 C.ar    1  UNL1        0.1933
     21 N         144.3563  139.3880  164.2679 N.ar    1  UNL1       -0.1221
     22 N         143.5422  138.8615  165.4124 N.ar    1  UNL1       -0.1266
     23 C         143.1896  140.0175  166.3009 C.ar    1  UNL1        0.1862
     24 N         143.7858  141.2585  165.7054 N.ar    1  UNL1       -0.2872
     25 C         143.6795  142.6450  166.2676 C.3     1  UNL1        0.1340
     26 C         142.3825  139.9453  167.5631 C.ar    1  UNL1        0.1362
     27 C         141.0025  140.5315  167.6056 C.ar    1  UNL1        0.1211
     28 N         140.1954  140.4592  168.8679 N.ar    1  UNL1       -0.2390
     29 C         140.7684  139.8007  170.0878 C.ar    1  UNL1        0.1195
     30 C         142.1484  139.2144  170.0454 C.ar    1  UNL1        0.1196
     31 N         142.9555  139.2867  168.7831 N.ar    1  UNL1       -0.2375
@<TRIPOS>BOND
     1    10    11    1
     2    11    12   ar
     3    12    13   ar
     4    13    14   ar
     5    14    15   ar
     6    15    16   ar
     7    16     2    1
     8     2     3    1
     9     3     4    1
    10     4     5    1
    11     5     6    1
    12     6     7    1
    13     7     1    1
    14     1    17    1
    15    17    18    1
    16    18    19    1
    17    19    20    1
    18    20    21   ar
    19    21    22   ar
    20    22    23   ar
    21    23    26    1
    22    26    27   ar
    23    27    28   ar
    24    28    29   ar
    25    29    30   ar
    26    30    31   ar
    27    23    24   ar
    28    24    25    1
    29     7     8    1
    30     8     9    1
    31    16    11   ar
    32     9     2    1
    33     9     5    1
    34    24    20   ar
    35    31    26   ar
@<TRIPOS>MOLECULE
*****
 31 35 0 0 0
SMALL
GASTEIGER

@<TRIPOS>ATOM
      1 C         138.3261  144.1920  163.4424 C.3     1  UNL1        0.0731
      2 N         139.6189  139.7713  166.2104 N.pl3   1  UNL1       -0.3079
      3 C         139.1849  138.5071  165.5295 C.3     1  UNL1        0.0909
      4 C         138.5033  138.8819  164.2470 C.3     1  UNL1        0.0245
      5 C         138.5161  140.3777  164.1351 C.3     1  UNL1        0.0372
      6 C         138.1027  141.5338  163.2734 C.3     1  UNL1        0.0738
      7 N         138.5367  142.7979  163.9542 N.3     1  UNL1       -0.2712
      8 C         139.2183  142.4232  165.2368 C.3     1  UNL1        0.0921
      9 C         139.2055  140.9274  165.3486 C.3     1  UNL1        0.0900
     10 C         142.6090  139.5441  166.2986 C.3     1  UNL1        0.0323
     11 C         141.8347  139.7497  167.5667 C.ar    1  UNL1       -0.0085
     12 C         142.5554  139.8417  168.8790 C.ar    1  UNL1       -0.0030
     13 C         141.7812  140.0473  170.1472 C.ar    1  UNL1       -0.0002
     14 C         140.2862  140.1609  170.1031 C.ar    1  UNL1        0.0012
     15 C         139.5654  140.0689  168.7908 C.ar    1  UNL1        0.0142
     16 C         140.3397  139.8633  167.5226 C.ar    1  UNL1        0.0438
     17 C         139.5050  145.0841  163.1893 C.3     1  UNL1        0.0294
     18 C         139.6183  145.8272  161.8911 C.3     1  UNL1        0.0666
     19 S         140.6010  145.3755  160.8517 S.3     1  UNL1       -0.0756
     20 C         141.6558  144.3689  161.2040 C.ar    1  UNL1        0.1933
     21 N         142.9736  144.6643  161.8567 N.ar    1  UNL1       -0.1221
     22 N         143.7103  143.3681  162.0216 N.ar    1  UNL1       -0.1266
     23 C         142.8477  142.2715  161.4708 C.ar    1  UNL1        0.1862
     24 N         141.5780  142.8900  160.9655 N.ar    1  UNL1       -0.2872
     25 C         140.4317  142.1581  160.3328 C.3     1  UNL1        0.1340
     26 C         143.1940  140.8125  161.4321 C.ar    1  UNL1        0.1362
     27 C         143.6352  140.1803  160.1455 C.ar    1  UNL1        0.1211
     28 N         143.9815  138.7213  160.1068 N.ar    1  UNL1       -0.2390
     29 C         143.8865  137.8946  161.3548 C.ar    1  UNL1        0.1195
     30 C         143.4453  138.5268  162.6415 C.ar    1  UNL1        0.1196
     31 N         143.0990  139.9858  162.6802 N.ar    1  UNL1       -0.2375
@<TRIPOS>BOND
     1    10    11    1
     2    11    12   ar
     3    12    13   ar
     4    13    14   ar
     5    14    15   ar
     6    15    16   ar
     7    16     2    1
     8     2     3    1
     9     3     4    1
    10     4     5    1
    11     5     6    1
    12     6     7    1
    13     7     1    1
    14     1    17    1
    15    17    18    1
    16    18    19    1
    17    19    20    1
    18    20    21   ar
    19    21    22   ar
    20    22    23   ar
    21    23    26    1
    22    26    27   ar
    23    27    28   ar
    24    28    29   ar
    25    29    30   ar
    26    30    31   ar
    27    23    24   ar
    28    24    25    1
    29     7     8    1
    30     8     9    1
    31    16    11   ar
    32     9     2    1
    33     9     5    1
    34    24    20   ar
    35    31    26   ar
@<TRIPOS>MOLECULE
*****
 31 35 0 0 0
SMALL
GASTEIGER

@<TRIPOS>ATOM
      1 C         138.4620  138.0964  162.9510 C.3     1  UNL1        0.0731
      2 N         141.5810  139.6527  167.0407 N.pl3   1  UNL1       -0.3079
      3 C         142.9510  139.0437  166.9961 C.3     1  UNL1        0.0909
      4 C         143.0269  138.1615  165.7853 C.3     1  UNL1        0.0245
      5 C         141.7037  138.2253  165.0816 C.3     1  UNL1        0.0372
      6 C         140.9329  137.7196  163.8984 C.3     1  UNL1        0.0738
      7 N         139.5629  138.3287  163.9430 N.3     1  UNL1       -0.2712
      8 C         139.4870  139.2108  165.1537 C.3     1  UNL1        0.0921
      9 C         140.8101  139.1470  165.8575 C.3     1  UNL1        0.0900
     10 C         142.9611  142.2794  167.4837 C.3     1  UNL1        0.0323
     11 C         141.7613  141.9144  168.3066 C.ar    1  UNL1       -0.0085
     12 C         141.2515  142.8627  169.3511 C.ar    1  UNL1       -0.0030
     13 C         140.0517  142.4977  170.1740 C.ar    1  UNL1       -0.0002
     14 C         139.3617  141.1844  169.9526 C.ar    1  UNL1        0.0012
     15 C         139.8715  140.2361  168.9081 C.ar    1  UNL1        0.0142
     16 C         141.0713  140.6011  168.0851 C.ar    1  UNL1        0.0438
     17 C         138.7139  138.3086  161.4877 C.3     1  UNL1        0.0294
     18 C         137.8383  139.2403  160.7033 C.3     1  UNL1        0.0666
     19 S         138.4458  140.1686  159.6936 S.3     1  UNL1       -0.0756
     20 C         139.0041  141.4905  160.1306 C.ar    1  UNL1        0.1933
     21 N         138.4258  142.8387  159.8180 N.ar    1  UNL1       -0.1221
     22 N         139.3031  143.8777  160.4511 N.ar    1  UNL1       -0.1266
     23 C         140.4237  143.1715  161.1551 C.ar    1  UNL1        0.1862
     24 N         140.2389  141.6962  160.9570 N.ar    1  UNL1       -0.2872
     25 C         141.1322  140.6162  161.4915 C.3     1  UNL1        0.1340
     26 C         141.5341  143.8259  161.9224 C.ar    1  UNL1        0.1362
     27 C         142.9522  143.6885  161.4535 C.ar    1  UNL1        0.1211
     28 N         144.0627  144.3429  162.2209 N.ar    1  UNL1       -0.2390
     29 C         143.7549  145.1345  163.4572 C.ar    1  UNL1        0.1195
     30 C         142.3367  145.2719  163.9262 C.ar    1  UNL1        0.1196
     31 N         141.2263  144.6176  163.1589 N.ar    1  UNL1       -0.2375
@<TRIPOS>BOND
     1    10    11    1
     2    11    12   ar
     3    12    13   ar
     4    13    14   ar
     5    14    15   ar
     6    15    16   ar
     7    16     2    1
     8     2     3    1
     9     3     4    1
    10     4     5    1
    11     5     6    1
    12     6     7    1
    13     7     1    1
    14     1    17    1
    15    17    18    1
    16    18    19    1
    17    19    20    1
    18    20    21   ar
    19    21    22   ar
    20    22    23   ar
    21    23    26    1
    22    26    27   ar
    23    27    28   ar
    24    28    29   ar
    25    29    30   ar
    26    30    31   ar
    27    23    24   ar
    28    24    25    1
    29     7     8    1
    30     8     9    1
    31    16    11   ar
    32     9     2    1
    33     9     5    1
    34    24    20   ar
    35    31    26   ar
@<TRIPOS>MOLECULE
*****
 31 35 0 0 0
SMALL
GASTEIGER

@<TRIPOS>ATOM
      1 C         137.7046  143.4578  162.7759 C.3     1  UNL1        0.0731
      2 N         139.7076  139.3454  165.5960 N.pl3   1  UNL1       -0.3079
      3 C         139.4509  138.0150  164.9526 C.3     1  UNL1        0.0909
      4 C         138.6908  138.2537  163.6817 C.3     1  UNL1        0.0245
      5 C         138.4777  139.7316  163.5396 C.3     1  UNL1        0.0372
      6 C         137.8762  140.7926  162.6663 C.3     1  UNL1        0.0738
      7 N         138.1329  142.1230  163.3097 N.3     1  UNL1       -0.2712
      8 C         138.8929  141.8844  164.5806 C.3     1  UNL1        0.0921
      9 C         139.1061  140.4064  164.7227 C.3     1  UNL1        0.0900
     10 C         142.6967  139.1087  165.6909 C.3     1  UNL1        0.0323
     11 C         141.9321  139.4564  166.9336 C.ar    1  UNL1       -0.0085
     12 C         142.6620  139.6857  168.2239 C.ar    1  UNL1       -0.0030
     13 C         141.8973  140.0334  169.4667 C.ar    1  UNL1       -0.0002
     14 C         140.4028  140.1517  169.4192 C.ar    1  UNL1        0.0012
     15 C         139.6729  139.9224  168.1290 C.ar    1  UNL1        0.0142
     16 C         140.4375  139.5747  166.8862 C.ar    1  UNL1        0.0438
     17 C         138.3508  144.7118  163.2857 C.3     1  UNL1        0.0294
     18 C         139.2532  145.5079  162.3903 C.3     1  UNL1        0.0666
     19 S         140.7420  145.3699  162.5116 S.3     1  UNL1       -0.0756
     20 C         141.3495  144.0302  162.8053 C.ar    1  UNL1        0.1933
     21 N         141.9961  143.6189  164.0947 N.ar    1  UNL1       -0.1221
     22 N         142.4633  142.2011  163.9475 N.ar    1  UNL1       -0.1266
     23 C         142.1054  141.7362  162.5670 C.ar    1  UNL1        0.1862
     24 N         141.4170  142.8666  161.8611 N.ar    1  UNL1       -0.2872
     25 C         140.8889  142.8383  160.4575 C.3     1  UNL1        0.1340
     26 C         142.3865  140.3791  161.9932 C.ar    1  UNL1        0.1362
     27 C         143.7797  139.8245  162.0268 C.ar    1  UNL1        0.1211
     28 N         144.0607  138.4673  161.4529 N.ar    1  UNL1       -0.2390
     29 C         142.9485  137.6649  160.8455 C.ar    1  UNL1        0.1195
     30 C         141.5552  138.2195  160.8120 C.ar    1  UNL1        0.1196
     31 N         141.2741  139.5766  161.3858 N.ar    1  UNL1       -0.2375
@<TRIPOS>BOND
     1    10    11    1
     2    11    12   ar
     3    12    13   ar
     4    13    14   ar
     5    14    15   ar
     6    15    16   ar
     7    16     2    1
     8     2     3    1
     9     3     4    1
    10     4     5    1
    11     5     6    1
    12     6     7    1
    13     7     1    1
    14     1    17    1
    15    17    18    1
    16    18    19    1
    17    19    20    1
    18    20    21   ar
    19    21    22   ar
    20    22    23   ar
    21    23    26    1
    22    26    27   ar
    23    27    28   ar
    24    28    29   ar
    25    29    30   ar
    26    30    31   ar
    27    23    24   ar
    28    24    25    1
    29     7     8    1
    30     8     9    1
    31    16    11   ar
    32     9     2    1
    33     9     5    1
    34    24    20   ar
    35    31    26   ar
@<TRIPOS>MOLECULE
*****
 31 35 0 0 0
SMALL
GASTEIGER

@<TRIPOS>ATOM
      1 C         141.7420  137.4972  162.6000 C.3     1  UNL1        0.0731
      2 N         140.2274  139.7241  167.2500 N.pl3   1  UNL1       -0.3079
      3 C         138.7596  139.5731  167.5201 C.3     1  UNL1        0.0909
      4 C         138.1517  138.8236  166.3718 C.3     1  UNL1        0.0245
      5 C         139.2437  138.5114  165.3919 C.3     1  UNL1        0.0372
      6 C         139.5430  137.8553  164.0767 C.3     1  UNL1        0.0738
      7 N         141.0106  138.0063  163.8066 N.3     1  UNL1       -0.2712
      8 C         141.6186  138.7557  164.9549 C.3     1  UNL1        0.0921
      9 C         140.5266  139.0679  165.9348 C.3     1  UNL1        0.0900
     10 C         140.7183  142.6692  166.9577 C.3     1  UNL1        0.0323
     11 C         141.4668  141.8832  167.9930 C.ar    1  UNL1       -0.0085
     12 C         142.4609  142.5697  168.8821 C.ar    1  UNL1       -0.0030
     13 C         143.2096  141.7837  169.9174 C.ar    1  UNL1       -0.0002
     14 C         142.9641  140.3112  170.0635 C.ar    1  UNL1        0.0012
     15 C         141.9701  139.6247  169.1744 C.ar    1  UNL1        0.0142
     16 C         141.2214  140.4107  168.1391 C.ar    1  UNL1        0.0438
     17 C         143.0887  138.0562  162.2481 C.3     1  UNL1        0.0294
     18 C         143.4577  138.2749  160.8108 C.3     1  UNL1        0.0666
     19 S         143.5991  139.6695  160.2765 S.3     1  UNL1       -0.0756
     20 C         143.0246  140.8265  161.0390 C.ar    1  UNL1        0.1933
     21 N         143.8077  141.8784  161.7671 N.ar    1  UNL1       -0.1221
     22 N         142.8333  142.8368  162.3854 N.ar    1  UNL1       -0.1266
     23 C         141.4481  142.3771  162.0393 C.ar    1  UNL1        0.1862
     24 N         141.5663  141.1347  161.2072 N.ar    1  UNL1       -0.2872
     25 C         140.4264  140.3400  160.6424 C.3     1  UNL1        0.1340
     26 C         140.1691  143.0430  162.4527 C.ar    1  UNL1        0.1362
     27 C         139.7887  144.3683  161.8624 C.ar    1  UNL1        0.1211
     28 N         138.5097  145.0342  162.2758 N.ar    1  UNL1       -0.2390
     29 C         137.6111  144.3746  163.2796 C.ar    1  UNL1        0.1195
     30 C         137.9916  143.0491  163.8699 C.ar    1  UNL1        0.1196
     31 N         139.2705  142.3833  163.4565 N.ar    1  UNL1       -0.2375
@<TRIPOS>BOND
     1    10    11    1
     2    11    12   ar
     3    12    13   ar
     4    13    14   ar
     5    14    15   ar
     6    15    16   ar
     7    16     2    1
     8     2     3    1
     9     3     4    1
    10     4     5    1
    11     5     6    1
    12     6     7    1
    13     7     1    1
    14     1    17    1
    15    17    18    1
    16    18    19    1
    17    19    20    1
    18    20    21   ar
    19    21    22   ar
    20    22    23   ar
    21    23    26    1
    22    26    27   ar
    23    27    28   ar
    24    28    29   ar
    25    29    30   ar
    26    30    31   ar
    27    23    24   ar
    28    24    25    1
    29     7     8    1
    30     8     9    1
    31    16    11   ar
    32     9     2    1
    33     9     5    1
    34    24    20   ar
    35    31    26   ar
@<TRIPOS>MOLECULE
*****
 31 35 0 0 0
SMALL
GASTEIGER

@<TRIPOS>ATOM
      1 C         138.5844  138.0470  162.7566 C.3     1  UNL1        0.0731
      2 N         141.5749  139.6491  166.9238 N.pl3   1  UNL1       -0.3079
      3 C         142.9722  139.1051  166.8844 C.3     1  UNL1        0.0909
      4 C         143.1045  138.2560  165.6550 C.3     1  UNL1        0.0245
      5 C         141.7890  138.2753  164.9345 C.3     1  UNL1        0.0372
      6 C         141.0577  137.7624  163.7294 C.3     1  UNL1        0.0738
      7 N         139.6605  138.3064  163.7689 N.3     1  UNL1       -0.2712
      8 C         139.5281  139.1555  164.9983 C.3     1  UNL1        0.0921
      9 C         140.8436  139.1362  165.7187 C.3     1  UNL1        0.0900
     10 C         141.2671  142.5853  166.3910 C.3     1  UNL1        0.0323
     11 C         140.8544  142.0162  167.7160 C.ar    1  UNL1       -0.0085
     12 C         140.2878  142.9152  168.7748 C.ar    1  UNL1       -0.0030
     13 C         139.8750  142.3461  170.0998 C.ar    1  UNL1       -0.0002
     14 C         140.0289  140.8780  170.3663 C.ar    1  UNL1        0.0012
     15 C         140.5956  139.9790  169.3075 C.ar    1  UNL1        0.0142
     16 C         141.0083  140.5481  167.9825 C.ar    1  UNL1        0.0438
     17 C         137.8235  139.1938  162.1602 C.3     1  UNL1        0.0294
     18 C         137.9309  139.4825  160.6921 C.3     1  UNL1        0.0666
     19 S         138.6277  140.7246  160.2211 S.3     1  UNL1       -0.0756
     20 C         140.0460  140.9900  160.6307 C.ar    1  UNL1        0.1933
     21 N         141.2738  140.5883  159.8684 N.ar    1  UNL1       -0.1221
     22 N         142.4722  141.0538  160.6412 N.ar    1  UNL1       -0.1266
     23 C         141.9851  141.7431  161.8811 C.ar    1  UNL1        0.1862
     24 N         140.4856  141.7037  161.8746 N.ar    1  UNL1       -0.2872
     25 C         139.5841  142.2773  162.9273 C.3     1  UNL1        0.1340
     26 C         142.8462  142.3631  162.9414 C.ar    1  UNL1        0.1362
     27 C         143.6969  141.4942  163.8195 C.ar    1  UNL1        0.1211
     28 N         144.5580  142.1142  164.8798 N.ar    1  UNL1       -0.2390
     29 C         144.5684  143.6031  165.0619 C.ar    1  UNL1        0.1195
     30 C         143.7177  144.4720  164.1836 C.ar    1  UNL1        0.1196
     31 N         142.8565  143.8520  163.1234 N.ar    1  UNL1       -0.2375
@<TRIPOS>BOND
     1    10    11    1
     2    11    12   ar
     3    12    13   ar
     4    13    14   ar
     5    14    15   ar
     6    15    16   ar
     7    16     2    1
     8     2     3    1
     9     3     4    1
    10     4     5    1
    11     5     6    1
    12     6     7    1
    13     7     1    1
    14     1    17    1
    15    17    18    1
    16    18    19    1
    17    19    20    1
    18    20    21   ar
    19    21    22   ar
    20    22    23   ar
    21    23    26    1
    22    26    27   ar
    23    27    28   ar
    24    28    29   ar
    25    29    30   ar
    26    30    31   ar
    27    23    24   ar
    28    24    25    1
    29     7     8    1
    30     8     9    1
    31    16    11   ar
    32     9     2    1
    33     9     5    1
    34    24    20   ar
    35    31    26   ar
@<TRIPOS>MOLECULE
*****
 31 35 0 0 0
SMALL
GASTEIGER

@<TRIPOS>ATOM
      1 C         143.2370  144.3618  163.8612 C.3     1  UNL1        0.0731
      2 N         138.6196  141.6184  164.0323 N.pl3   1  UNL1       -0.3079
      3 C         137.4377  142.4352  163.6012 C.3     1  UNL1        0.0909
      4 C         137.9277  143.8075  163.2450 C.3     1  UNL1        0.0245
      5 C         139.4125  143.8388  163.4560 C.3     1  UNL1        0.0372
      6 C         140.6329  144.7062  163.3664 C.3     1  UNL1        0.0738
      7 N         141.8148  143.8894  163.7975 N.3     1  UNL1       -0.2712
      8 C         141.3249  142.5172  164.1536 C.3     1  UNL1        0.0921
      9 C         139.8401  142.4858  163.9426 C.3     1  UNL1        0.0900
     10 C         139.3098  139.4333  162.0959 C.3     1  UNL1        0.0323
     11 C         138.9319  139.0932  163.5071 C.ar    1  UNL1       -0.0085
     12 C         138.8992  137.6605  163.9502 C.ar    1  UNL1       -0.0030
     13 C         138.5214  137.3203  165.3614 C.ar    1  UNL1       -0.0002
     14 C         138.1763  138.4128  166.3296 C.ar    1  UNL1        0.0012
     15 C         138.2091  139.8455  165.8865 C.ar    1  UNL1        0.0142
     16 C         138.5869  140.1857  164.4753 C.ar    1  UNL1        0.0438
     17 C         144.1944  143.7305  164.8280 C.3     1  UNL1        0.0294
     18 C         144.8728  142.4395  164.4768 C.3     1  UNL1        0.0666
     19 S         145.2619  142.1592  163.0554 S.3     1  UNL1       -0.0756
     20 C         144.6720  140.9837  162.3342 C.ar    1  UNL1        0.1933
     21 N         144.5030  139.6014  162.8916 N.ar    1  UNL1       -0.1221
     22 N         143.8741  138.7475  161.8309 N.ar    1  UNL1       -0.1266
     23 C         143.6543  139.6020  160.6179 C.ar    1  UNL1        0.1862
     24 N         144.1474  140.9841  160.9289 N.ar    1  UNL1       -0.2872
     25 C         144.1207  142.1600  159.9981 C.3     1  UNL1        0.1340
     26 C         143.0478  139.1533  159.3214 C.ar    1  UNL1        0.1362
     27 C         141.6698  138.5614  159.3031 C.ar    1  UNL1        0.1211
     28 N         141.0633  138.1127  158.0065 N.ar    1  UNL1       -0.2390
     29 C         141.8351  138.2560  156.7283 C.ar    1  UNL1        0.1195
     30 C         143.2132  138.8479  156.7466 C.ar    1  UNL1        0.1196
     31 N         143.8197  139.2966  158.0431 N.ar    1  UNL1       -0.2375
@<TRIPOS>BOND
     1    10    11    1
     2    11    12   ar
     3    12    13   ar
     4    13    14   ar
     5    14    15   ar
     6    15    16   ar
     7    16     2    1
     8     2     3    1
     9     3     4    1
    10     4     5    1
    11     5     6    1
    12     6     7    1
    13     7     1    1
    14     1    17    1
    15    17    18    1
    16    18    19    1
    17    19    20    1
    18    20    21   ar
    19    21    22   ar
    20    22    23   ar
    21    23    26    1
    22    26    27   ar
    23    27    28   ar
    24    28    29   ar
    25    29    30   ar
    26    30    31   ar
    27    23    24   ar
    28    24    25    1
    29     7     8    1
    30     8     9    1
    31    16    11   ar
    32     9     2    1
    33     9     5    1
    34    24    20   ar
    35    31    26   ar
