@<TRIPOS>MOLECULE
*****
 27 30 0 0 0
SMALL
GASTEIGER

@<TRIPOS>ATOM
      1 C         140.7809  138.6126  158.1339 C.3     1  UNL1        0.1355
      2 C         140.8037  137.4619  157.1718 C.3     1  UNL1        0.0700
      3 C         142.1561  137.4263  156.5238 C.3     1  UNL1        0.1834
      4 C         142.9690  138.5549  157.0853 C.3     1  UNL1        0.1130
      5 N         142.1191  139.2880  158.0803 N.3     1  UNL1       -0.2882
      6 H         142.0053  140.2591  157.7895 H       1  UNL1        0.1237
      7 O         138.4286  139.6863  158.3857 O.2     1  UNL1       -0.2734
      8 C         139.6232  139.0167  158.9977 C.2     1  UNL1        0.2401
      9 N         139.6600  138.7513  160.4736 N.am    1  UNL1       -0.2770
     10 C         140.8997  138.0775  160.9829 C.3     1  UNL1        0.0949
     11 C         141.2378  137.6807  162.3894 C.3     1  UNL1        0.0388
     12 C         140.4198  137.8597  163.6339 C.3     1  UNL1        0.0739
     13 N         139.0617  138.4796  163.7794 N.3     1  UNL1       -0.2725
     14 C         138.1861  139.0737  162.7161 C.3     1  UNL1        0.0938
     15 C         138.4524  139.1945  161.2449 C.3     1  UNL1        0.1107
     16 C         138.5056  138.5094  165.1721 C.3     1  UNL1        0.0576
     17 C         138.0903  137.4701  166.1709 C.3     1  UNL1        0.0160
     18 C         137.7192  138.5515  167.1419 C.3     1  UNL1        0.0028
     19 C         138.1345  139.5908  166.1432 C.3     1  UNL1        0.0160
     20 O         142.6149  136.4359  155.4948 O.3     1  UNL1       -0.4777
     21 C         142.7158  134.9812  155.8466 C.ar    1  UNL1        0.1393
     22 C         141.6954  134.0117  155.3282 C.ar    1  UNL1        0.0370
     23 C         141.7963  132.5571  155.6799 C.ar    1  UNL1        0.0040
     24 C         142.9176  132.0719  156.5501 C.ar    1  UNL1        0.0116
     25 C         143.9380  133.0414  157.0686 C.ar    1  UNL1        0.0607
     26 CL        145.0594  132.5563  157.9388 Cl      1  UNL1       -0.0821
     27 C         143.8371  134.4961  156.7168 C.ar    1  UNL1        0.0483
@<TRIPOS>BOND
     1     7     8    2
     2     1     8    1
     3     1     2    1
     4     2     3    1
     5     3    20    1
     6    20    21    1
     7    21    22   ar
     8    22    23   ar
     9    23    24   ar
    10    24    25   ar
    11    25    26    1
    12    25    27   ar
    13     3     4    1
    14     4     5    1
    15     8     9   am
    16     9    10    1
    17    10    11    1
    18    11    12    1
    19    12    13    1
    20    13    16    1
    21    16    17    1
    22    17    18    1
    23    18    19    1
    24    13    14    1
    25    14    15    1
    26     5     1    1
    27    15     9    1
    28    27    21   ar
    29    19    16    1
    30     5     6    1
@<TRIPOS>MOLECULE
*****
 27 30 0 0 0
SMALL
GASTEIGER

@<TRIPOS>ATOM
      1 C         139.3534  143.1681  159.8609 C.3     1  UNL1        0.1355
      2 C         138.5450  142.0004  160.3437 C.3     1  UNL1        0.0700
      3 C         138.0269  142.3296  161.7124 C.3     1  UNL1        0.1834
      4 C         138.5150  143.7007  162.0754 C.3     1  UNL1        0.1130
      5 N         139.3348  144.2189  160.9311 N.3     1  UNL1       -0.2882
      6 H         140.2862  144.4097  161.2455 H       1  UNL1        0.1237
      7 O         139.2974  143.6840  157.3152 O.2     1  UNL1       -0.2734
      8 C         140.0568  143.2674  158.5398 C.2     1  UNL1        0.2401
      9 N         141.5197  142.9502  158.4433 N.am    1  UNL1       -0.2770
     10 C         142.1836  142.5442  159.7258 C.3     1  UNL1        0.0949
     11 C         143.6170  142.1686  159.9588 C.3     1  UNL1        0.0388
     12 C         144.7405  142.1063  158.9670 C.3     1  UNL1        0.0739
     13 N         144.7082  142.4042  157.4972 N.3     1  UNL1       -0.2725
     14 C         143.5444  142.8379  156.6562 C.3     1  UNL1        0.0938
     15 C         142.1253  143.0809  157.0774 C.3     1  UNL1        0.1107
     16 C         146.0122  142.2476  156.7726 C.3     1  UNL1        0.0576
     17 C         147.4000  142.7858  156.9580 C.3     1  UNL1        0.0160
     18 C         147.8564  142.0261  155.7478 C.3     1  UNL1        0.0028
     19 C         146.4686  141.4878  155.5623 C.3     1  UNL1        0.0160
     20 O         137.1708  141.4433  162.5678 O.3     1  UNL1       -0.4777
     21 C         137.7903  140.3058  163.3243 C.ar    1  UNL1        0.1393
     22 C         138.1926  139.0548  162.6010 C.ar    1  UNL1        0.0370
     23 C         138.8121  137.9174  163.3574 C.ar    1  UNL1        0.0040
     24 C         139.0293  138.0308  164.8372 C.ar    1  UNL1        0.0116
     25 C         138.6270  139.2817  165.5606 C.ar    1  UNL1        0.0607
     26 CL        138.8442  139.3952  167.0405 Cl      1  UNL1       -0.0821
     27 C         138.0075  140.4192  164.8041 C.ar    1  UNL1        0.0483
@<TRIPOS>BOND
     1     7     8    2
     2     1     8    1
     3     1     2    1
     4     2     3    1
     5     3    20    1
     6    20    21    1
     7    21    22   ar
     8    22    23   ar
     9    23    24   ar
    10    24    25   ar
    11    25    26    1
    12    25    27   ar
    13     3     4    1
    14     4     5    1
    15     8     9   am
    16     9    10    1
    17    10    11    1
    18    11    12    1
    19    12    13    1
    20    13    16    1
    21    16    17    1
    22    17    18    1
    23    18    19    1
    24    13    14    1
    25    14    15    1
    26     5     1    1
    27    15     9    1
    28    27    21   ar
    29    19    16    1
    30     5     6    1
@<TRIPOS>MOLECULE
*****
 27 30 0 0 0
SMALL
GASTEIGER

@<TRIPOS>ATOM
      1 C         141.6692  144.8277  162.3643 C.3     1  UNL1        0.1355
      2 C         141.3078  144.1875  161.0568 C.3     1  UNL1        0.0700
      3 C         140.2107  144.9972  160.4318 C.3     1  UNL1        0.1834
      4 C         139.8940  146.1378  161.3530 C.3     1  UNL1        0.1130
      5 N         140.7954  146.0331  162.5473 N.3     1  UNL1       -0.2882
      6 H         140.2368  145.9303  163.3946 H       1  UNL1        0.1237
      7 O         144.1666  144.6411  163.0555 O.2     1  UNL1       -0.2734
      8 C         142.7199  144.3470  163.3208 C.2     1  UNL1        0.2401
      9 N         142.3239  143.5720  164.5425 N.am    1  UNL1       -0.2770
     10 C         140.8528  143.3329  164.7130 C.3     1  UNL1        0.0949
     11 C         140.1458  142.6014  165.8154 C.3     1  UNL1        0.0388
     12 C         140.7352  141.9284  167.0193 C.3     1  UNL1        0.0739
     13 N         142.1771  141.8206  167.4184 N.3     1  UNL1       -0.2725
     14 C         143.3858  142.3592  166.7121 C.3     1  UNL1        0.0938
     15 C         143.4510  143.1387  165.4322 C.3     1  UNL1        0.1107
     16 C         142.4458  141.0757  168.6923 C.3     1  UNL1        0.0576
     17 C         141.9867  139.7723  169.2760 C.3     1  UNL1        0.0160
     18 C         142.8259  140.0221  170.4939 C.3     1  UNL1        0.0028
     19 C         143.2850  141.3254  169.9103 C.3     1  UNL1        0.0160
     20 O         139.5468  144.7157  159.1165 O.3     1  UNL1       -0.4777
     21 C         140.2902  144.9521  157.8353 C.ar    1  UNL1        0.1393
     22 C         141.4143  144.0404  157.4412 C.ar    1  UNL1        0.0370
     23 C         142.1577  144.2767  156.1601 C.ar    1  UNL1        0.0040
     24 C         141.7772  145.4248  155.2730 C.ar    1  UNL1        0.0116
     25 C         140.6531  146.3366  155.6670 C.ar    1  UNL1        0.0607
     26 CL        140.2725  147.4847  154.7799 Cl      1  UNL1       -0.0821
     27 C         139.9097  146.1001  156.9482 C.ar    1  UNL1        0.0483
@<TRIPOS>BOND
     1     7     8    2
     2     1     8    1
     3     1     2    1
     4     2     3    1
     5     3    20    1
     6    20    21    1
     7    21    22   ar
     8    22    23   ar
     9    23    24   ar
    10    24    25   ar
    11    25    26    1
    12    25    27   ar
    13     3     4    1
    14     4     5    1
    15     8     9   am
    16     9    10    1
    17    10    11    1
    18    11    12    1
    19    12    13    1
    20    13    16    1
    21    16    17    1
    22    17    18    1
    23    18    19    1
    24    13    14    1
    25    14    15    1
    26     5     1    1
    27    15     9    1
    28    27    21   ar
    29    19    16    1
    30     5     6    1
@<TRIPOS>MOLECULE
*****
 27 30 0 0 0
SMALL
GASTEIGER

@<TRIPOS>ATOM
      1 C         138.0611  140.9106  160.7051 C.3     1  UNL1        0.1355
      2 C         138.7133  142.1911  161.1352 C.3     1  UNL1        0.0700
      3 C         138.2782  142.4836  162.5406 C.3     1  UNL1        0.1834
      4 C         137.3572  141.3840  162.9791 C.3     1  UNL1        0.1130
      5 N         137.2230  140.4118  161.8447 N.3     1  UNL1       -0.2882
      6 H         136.2468  140.3501  161.5554 H       1  UNL1        0.1237
      7 O         137.1291  140.3524  158.3451 O.2     1  UNL1       -0.2734
      8 C         138.2192  140.2457  159.3699 C.2     1  UNL1        0.2401
      9 N         139.4675  139.4741  159.0594 N.am    1  UNL1       -0.2770
     10 C         140.4939  139.4296  160.1525 C.3     1  UNL1        0.0949
     11 C         141.8307  138.7490  160.1530 C.3     1  UNL1        0.0388
     12 C         142.4711  137.9449  159.0608 C.3     1  UNL1        0.0739
     13 N         141.9331  137.6226  157.6982 N.3     1  UNL1       -0.2725
     14 C         140.6217  138.0250  157.0913 C.3     1  UNL1        0.0938
     15 C         139.5244  138.8489  157.6972 C.3     1  UNL1        0.1107
     16 C         142.8243  136.7876  156.8274 C.3     1  UNL1        0.0576
     17 C         143.1999  135.3362  156.7763 C.3     1  UNL1        0.0160
     18 C         144.0848  135.6067  155.5958 C.3     1  UNL1        0.0028
     19 C         143.7093  137.0580  155.6467 C.3     1  UNL1        0.0160
     20 O         138.6917  143.6680  163.3631 O.3     1  UNL1       -0.4777
     21 C         140.1398  143.8872  163.6874 C.ar    1  UNL1        0.1393
     22 C         140.8627  145.0752  163.1252 C.ar    1  UNL1        0.0370
     23 C         142.3106  145.2944  163.4494 C.ar    1  UNL1        0.0040
     24 C         143.0358  144.3257  164.3358 C.ar    1  UNL1        0.0116
     25 C         142.3129  143.1376  164.8979 C.ar    1  UNL1        0.0607
     26 CL        143.0380  142.1688  165.7843 Cl      1  UNL1       -0.0821
     27 C         140.8648  142.9184  164.5736 C.ar    1  UNL1        0.0483
@<TRIPOS>BOND
     1     7     8    2
     2     1     8    1
     3     1     2    1
     4     2     3    1
     5     3    20    1
     6    20    21    1
     7    21    22   ar
     8    22    23   ar
     9    23    24   ar
    10    24    25   ar
    11    25    26    1
    12    25    27   ar
    13     3     4    1
    14     4     5    1
    15     8     9   am
    16     9    10    1
    17    10    11    1
    18    11    12    1
    19    12    13    1
    20    13    16    1
    21    16    17    1
    22    17    18    1
    23    18    19    1
    24    13    14    1
    25    14    15    1
    26     5     1    1
    27    15     9    1
    28    27    21   ar
    29    19    16    1
    30     5     6    1
@<TRIPOS>MOLECULE
*****
 27 30 0 0 0
SMALL
GASTEIGER

@<TRIPOS>ATOM
      1 C         140.9888  138.1386  162.1048 C.3     1  UNL1        0.1355
      2 C         140.7151  138.6586  160.7247 C.3     1  UNL1        0.0700
      3 C         141.8945  138.3233  159.8606 C.3     1  UNL1        0.1834
      4 C         142.8971  137.5960  160.7067 C.3     1  UNL1        0.1130
      5 N         142.3374  137.4819  162.0936 N.3     1  UNL1       -0.2882
      6 H         142.9558  137.9500  162.7561 H       1  UNL1        0.1237
      7 O         138.8308  137.4193  163.3601 O.2     1  UNL1       -0.2734
      8 C         140.0745  138.2548  163.2882 C.2     1  UNL1        0.2401
      9 N         140.4038  139.2066  164.3998 N.am    1  UNL1       -0.2770
     10 C         141.6694  139.9937  164.2290 C.3     1  UNL1        0.0949
     11 C         142.2677  141.0141  165.1515 C.3     1  UNL1        0.0388
     12 C         141.7484  141.4993  166.4724 C.3     1  UNL1        0.0739
     13 N         140.5025  141.0841  167.1972 N.3     1  UNL1       -0.2725
     14 C         139.4682  140.0811  166.7800 C.3     1  UNL1        0.0938
     15 C         139.4243  139.2455  165.5350 C.3     1  UNL1        0.1107
     16 C         140.2587  141.7615  168.5130 C.3     1  UNL1        0.0576
     17 C         140.4846  143.1427  169.0530 C.3     1  UNL1        0.0160
     18 C         139.9139  142.7195  170.3741 C.3     1  UNL1        0.0028
     19 C         139.6880  141.3384  169.8342 C.3     1  UNL1        0.0160
     20 O         142.0448  138.6567  158.4059 O.3     1  UNL1       -0.4777
     21 C         141.7979  137.6044  157.3658 C.ar    1  UNL1        0.1393
     22 C         140.4964  137.5773  156.6206 C.ar    1  UNL1        0.0370
     23 C         140.2494  136.5251  155.5806 C.ar    1  UNL1        0.0040
     24 C         141.3039  135.4999  155.2857 C.ar    1  UNL1        0.0116
     25 C         142.6054  135.5270  156.0309 C.ar    1  UNL1        0.0607
     26 CL        143.6600  134.5018  155.7361 Cl      1  UNL1       -0.0821
     27 C         142.8524  136.5793  157.0710 C.ar    1  UNL1        0.0483
@<TRIPOS>BOND
     1     7     8    2
     2     1     8    1
     3     1     2    1
     4     2     3    1
     5     3    20    1
     6    20    21    1
     7    21    22   ar
     8    22    23   ar
     9    23    24   ar
    10    24    25   ar
    11    25    26    1
    12    25    27   ar
    13     3     4    1
    14     4     5    1
    15     8     9   am
    16     9    10    1
    17    10    11    1
    18    11    12    1
    19    12    13    1
    20    13    16    1
    21    16    17    1
    22    17    18    1
    23    18    19    1
    24    13    14    1
    25    14    15    1
    26     5     1    1
    27    15     9    1
    28    27    21   ar
    29    19    16    1
    30     5     6    1
@<TRIPOS>MOLECULE
*****
 27 30 0 0 0
SMALL
GASTEIGER

@<TRIPOS>ATOM
      1 C         141.2093  144.7181  162.3809 C.3     1  UNL1        0.1355
      2 C         140.7865  143.4857  163.1241 C.3     1  UNL1        0.0700
      3 C         141.7958  143.2257  164.2029 C.3     1  UNL1        0.1834
      4 C         142.8423  144.2976  164.1265 C.3     1  UNL1        0.1130
      5 N         142.4799  145.2199  163.0005 N.3     1  UNL1       -0.2882
      6 H         143.2255  145.2260  162.3044 H       1  UNL1        0.1237
      7 O         139.3082  146.2333  161.4646 O.2     1  UNL1       -0.2734
      8 C         140.4882  145.3396  161.2218 C.2     1  UNL1        0.2401
      9 N         140.9470  145.0675  159.8199 N.am    1  UNL1       -0.2770
     10 C         142.1351  144.1612  159.6883 C.3     1  UNL1        0.0949
     11 C         142.8267  143.7012  158.4392 C.3     1  UNL1        0.0388
     12 C         142.5010  144.0338  157.0134 C.3     1  UNL1        0.0739
     13 N         141.4034  144.9086  156.4842 N.3     1  UNL1       -0.2725
     14 C         140.3603  145.6668  157.2504 C.3     1  UNL1        0.0938
     15 C         140.1572  145.7375  158.7349 C.3     1  UNL1        0.1107
     16 C         141.3406  145.0429  154.9916 C.3     1  UNL1        0.0576
     17 C         140.4227  145.7329  154.0264 C.3     1  UNL1        0.0160
     18 C         141.2517  145.2329  152.8807 C.3     1  UNL1        0.0028
     19 C         142.1696  144.5430  153.8457 C.3     1  UNL1        0.0160
     20 O         141.7640  142.0929  165.1856 O.3     1  UNL1       -0.4777
     21 C         141.7082  142.3779  166.6572 C.ar    1  UNL1        0.1393
     22 C         140.4279  142.8470  167.2823 C.ar    1  UNL1        0.0370
     23 C         140.3721  143.1320  168.7538 C.ar    1  UNL1        0.0040
     24 C         141.5966  142.9480  169.6004 C.ar    1  UNL1        0.0116
     25 C         142.8769  142.4788  168.9754 C.ar    1  UNL1        0.0607
     26 CL        144.1014  142.2947  169.8219 Cl      1  UNL1       -0.0821
     27 C         142.9327  142.1938  167.5037 C.ar    1  UNL1        0.0483
@<TRIPOS>BOND
     1     7     8    2
     2     1     8    1
     3     1     2    1
     4     2     3    1
     5     3    20    1
     6    20    21    1
     7    21    22   ar
     8    22    23   ar
     9    23    24   ar
    10    24    25   ar
    11    25    26    1
    12    25    27   ar
    13     3     4    1
    14     4     5    1
    15     8     9   am
    16     9    10    1
    17    10    11    1
    18    11    12    1
    19    12    13    1
    20    13    16    1
    21    16    17    1
    22    17    18    1
    23    18    19    1
    24    13    14    1
    25    14    15    1
    26     5     1    1
    27    15     9    1
    28    27    21   ar
    29    19    16    1
    30     5     6    1
@<TRIPOS>MOLECULE
*****
 27 30 0 0 0
SMALL
GASTEIGER

@<TRIPOS>ATOM
      1 C         138.2994  141.1071  160.1256 C.3     1  UNL1        0.1355
      2 C         137.7468  140.6566  161.4454 C.3     1  UNL1        0.0700
      3 C         137.8526  141.8025  162.4076 C.3     1  UNL1        0.1834
      4 C         138.4704  142.9611  161.6825 C.3     1  UNL1        0.1130
      5 N         138.7465  142.5313  160.2722 N.3     1  UNL1       -0.2882
      6 H         139.7453  142.6023  160.0780 H       1  UNL1        0.1237
      7 O         137.2711  140.3053  157.8784 O.2     1  UNL1       -0.2734
      8 C         138.3889  140.2787  158.8783 C.2     1  UNL1        0.2401
      9 N         139.5963  139.4238  158.6309 N.am    1  UNL1       -0.2770
     10 C         140.6551  139.4699  159.6926 C.3     1  UNL1        0.0949
     11 C         141.9644  138.7394  159.7401 C.3     1  UNL1        0.0388
     12 C         142.5382  137.7824  158.7378 C.3     1  UNL1        0.0739
     13 N         141.9446  137.3194  157.4403 N.3     1  UNL1       -0.2725
     14 C         140.6305  137.6992  156.8248 C.3     1  UNL1        0.0938
     15 C         139.5854  138.6358  157.3547 C.3     1  UNL1        0.1107
     16 C         142.7748  136.3483  156.6545 C.3     1  UNL1        0.0576
     17 C         143.9367  136.4652  155.7130 C.3     1  UNL1        0.0160
     18 C         143.9491  134.9749  155.5432 C.3     1  UNL1        0.0028
     19 C         142.7872  134.8579  156.4847 C.3     1  UNL1        0.0160
     20 O         137.4169  141.7915  163.8430 O.3     1  UNL1       -0.4777
     21 C         138.3324  141.2497  164.9005 C.ar    1  UNL1        0.1393
     22 C         138.1608  139.8430  165.3922 C.ar    1  UNL1        0.0370
     23 C         139.0762  139.3013  166.4497 C.ar    1  UNL1        0.0040
     24 C         140.1632  140.1661  167.0156 C.ar    1  UNL1        0.0116
     25 C         140.3348  141.5728  166.5239 C.ar    1  UNL1        0.0607
     26 CL        141.4219  142.4378  167.0898 Cl      1  UNL1       -0.0821
     27 C         139.4194  142.1146  165.4664 C.ar    1  UNL1        0.0483
@<TRIPOS>BOND
     1     7     8    2
     2     1     8    1
     3     1     2    1
     4     2     3    1
     5     3    20    1
     6    20    21    1
     7    21    22   ar
     8    22    23   ar
     9    23    24   ar
    10    24    25   ar
    11    25    26    1
    12    25    27   ar
    13     3     4    1
    14     4     5    1
    15     8     9   am
    16     9    10    1
    17    10    11    1
    18    11    12    1
    19    12    13    1
    20    13    16    1
    21    16    17    1
    22    17    18    1
    23    18    19    1
    24    13    14    1
    25    14    15    1
    26     5     1    1
    27    15     9    1
    28    27    21   ar
    29    19    16    1
    30     5     6    1
@<TRIPOS>MOLECULE
*****
 27 30 0 0 0
SMALL
GASTEIGER

@<TRIPOS>ATOM
      1 C         143.8530  142.8897  160.5845 C.3     1  UNL1        0.1355
      2 C         142.6787  143.6018  161.1879 C.3     1  UNL1        0.0700
      3 C         143.0673  144.0522  162.5649 C.3     1  UNL1        0.1834
      4 C         144.4817  143.6186  162.8124 C.3     1  UNL1        0.1130
      5 N         144.9673  142.9002  161.5885 N.3     1  UNL1       -0.2882
      6 H         145.2258  141.9432  161.8286 H       1  UNL1        0.1237
      7 O         144.3017  143.1082  158.0348 O.2     1  UNL1       -0.2734
      8 C         143.9039  142.2752  159.2171 C.2     1  UNL1        0.2401
      9 N         143.5569  140.8277  159.0319 N.am    1  UNL1       -0.2770
     10 C         143.1729  140.0860  160.2780 C.3     1  UNL1        0.0949
     11 C         142.7770  138.6467  160.4251 C.3     1  UNL1        0.0388
     12 C         142.6673  137.5937  159.3626 C.3     1  UNL1        0.0739
     13 N         142.9263  137.7197  157.8905 N.3     1  UNL1       -0.2725
     14 C         143.3591  138.9301  157.1174 C.3     1  UNL1        0.0938
     15 C         143.6398  140.3133  157.6255 C.3     1  UNL1        0.1107
     16 C         142.7262  136.4703  157.0851 C.3     1  UNL1        0.0576
     17 C         143.4780  135.1828  156.9201 C.3     1  UNL1        0.0160
     18 C         142.4431  134.7032  155.9460 C.3     1  UNL1        0.0028
     19 C         141.6911  135.9907  156.1109 C.3     1  UNL1        0.0160
     20 O         142.1947  144.8043  163.5256 O.3     1  UNL1       -0.4777
     21 C         140.8582  144.2478  163.9183 C.ar    1  UNL1        0.1393
     22 C         139.6011  144.9566  163.5091 C.ar    1  UNL1        0.0370
     23 C         138.2647  144.4002  163.9017 C.ar    1  UNL1        0.0040
     24 C         138.1852  143.1350  164.7036 C.ar    1  UNL1        0.0116
     25 C         139.4423  142.4263  165.1128 C.ar    1  UNL1        0.0607
     26 CL        139.3629  141.1611  165.9148 Cl      1  UNL1       -0.0821
     27 C         140.7788  142.9827  164.7202 C.ar    1  UNL1        0.0483
@<TRIPOS>BOND
     1     7     8    2
     2     1     8    1
     3     1     2    1
     4     2     3    1
     5     3    20    1
     6    20    21    1
     7    21    22   ar
     8    22    23   ar
     9    23    24   ar
    10    24    25   ar
    11    25    26    1
    12    25    27   ar
    13     3     4    1
    14     4     5    1
    15     8     9   am
    16     9    10    1
    17    10    11    1
    18    11    12    1
    19    12    13    1
    20    13    16    1
    21    16    17    1
    22    17    18    1
    23    18    19    1
    24    13    14    1
    25    14    15    1
    26     5     1    1
    27    15     9    1
    28    27    21   ar
    29    19    16    1
    30     5     6    1
@<TRIPOS>MOLECULE
*****
 27 30 0 0 0
SMALL
GASTEIGER

@<TRIPOS>ATOM
      1 C         137.9518  140.1238  159.5678 C.3     1  UNL1        0.1355
      2 C         139.0109  139.0721  159.7172 C.3     1  UNL1        0.0700
      3 C         139.0120  138.6152  161.1460 C.3     1  UNL1        0.1834
      4 C         137.9536  139.3844  161.8795 C.3     1  UNL1        0.1130
      5 N         137.2984  140.3167  160.9041 N.3     1  UNL1       -0.2882
      6 H         137.4195  141.2814  161.2126 H       1  UNL1        0.1237
      7 O         136.5740  140.2935  157.3717 O.2     1  UNL1       -0.2734
      8 C         137.6067  140.8542  158.3039 C.2     1  UNL1        0.2401
      9 N         138.2945  142.1453  157.9722 N.am    1  UNL1       -0.2770
     10 C         139.3096  142.6172  158.9707 C.3     1  UNL1        0.0949
     11 C         140.1572  143.8542  158.9294 C.3     1  UNL1        0.0388
     12 C         140.1989  144.9246  157.8796 C.3     1  UNL1        0.0739
     13 N         139.4034  145.0227  156.6116 N.3     1  UNL1       -0.2725
     14 C         138.3697  144.0743  156.0804 C.3     1  UNL1        0.0938
     15 C         137.8762  142.7938  156.6860 C.3     1  UNL1        0.1107
     16 C         139.6779  146.2284  155.7627 C.3     1  UNL1        0.0576
     17 C         140.6136  146.5389  154.6321 C.3     1  UNL1        0.0160
     18 C         140.0661  147.9336  154.5620 C.3     1  UNL1        0.0028
     19 C         139.1304  147.6232  155.6925 C.3     1  UNL1        0.0160
     20 O         139.9133  137.5721  161.7373 O.3     1  UNL1       -0.4777
     21 C         141.0011  137.9731  162.6891 C.ar    1  UNL1        0.1393
     22 C         140.9194  137.5738  164.1327 C.ar    1  UNL1        0.0370
     23 C         142.0071  137.9748  165.0845 C.ar    1  UNL1        0.0040
     24 C         143.1767  138.7749  164.5928 C.ar    1  UNL1        0.0116
     25 C         143.2584  139.1742  163.1492 C.ar    1  UNL1        0.0607
     26 CL        144.4280  139.9744  162.6574 Cl      1  UNL1       -0.0821
     27 C         142.1706  138.7732  162.1974 C.ar    1  UNL1        0.0483
@<TRIPOS>BOND
     1     7     8    2
     2     1     8    1
     3     1     2    1
     4     2     3    1
     5     3    20    1
     6    20    21    1
     7    21    22   ar
     8    22    23   ar
     9    23    24   ar
    10    24    25   ar
    11    25    26    1
    12    25    27   ar
    13     3     4    1
    14     4     5    1
    15     8     9   am
    16     9    10    1
    17    10    11    1
    18    11    12    1
    19    12    13    1
    20    13    16    1
    21    16    17    1
    22    17    18    1
    23    18    19    1
    24    13    14    1
    25    14    15    1
    26     5     1    1
    27    15     9    1
    28    27    21   ar
    29    19    16    1
    30     5     6    1
