@<TRIPOS>MOLECULE
*****
 25 28 0 0 0
SMALL
GASTEIGER

@<TRIPOS>ATOM
      1 O         142.7972  138.7585  167.6066 O.2     1  UNL1       -0.2699
      2 C         142.7420  140.1810  167.1340 C.2     1  UNL1        0.2487
      3 N         143.1950  140.5285  165.7469 N.am    1  UNL1       -0.2763
      4 C         142.2339  141.2560  168.0484 C.ar    1  UNL1        0.0496
      5 C         143.1912  142.0140  168.9196 C.ar    1  UNL1        0.0042
      6 C         142.6830  143.0890  169.8340 C.ar    1  UNL1        0.0001
      7 C         141.2175  143.4059  169.8772 C.ar    1  UNL1       -0.0003
      8 C         140.2602  142.6479  169.0061 C.ar    1  UNL1       -0.0041
      9 C         140.7684  141.5729  168.0917 C.ar    1  UNL1       -0.0181
     10 C         139.8110  140.8148  167.2206 C.3     1  UNL1        0.0225
     11 C         139.3874  141.1988  165.8338 C.3     1  UNL1        0.0044
     12 C         138.4238  140.1610  165.3394 C.3     1  UNL1        0.0003
     13 C         138.2519  139.1355  166.4207 C.3     1  UNL1        0.0003
     14 C         139.1093  139.5396  167.5832 C.3     1  UNL1        0.0044
     15 C         143.1398  141.9511  165.2743 C.3     1  UNL1        0.0927
     16 C         142.0027  142.5909  164.5344 C.3     1  UNL1        0.0383
     17 C         142.3722  144.0188  164.2614 C.3     1  UNL1        0.0704
     18 N         143.7378  144.2615  164.8327 N.3     1  UNL1       -0.2960
     19 C         144.2122  142.9836  165.4586 C.3     1  UNL1        0.0887
     20 H         143.6922  144.9966  165.5384 H       1  UNL1        0.1233
     21 C         143.7031  139.4536  164.8324 C.3     1  UNL1        0.0936
     22 C         142.7351  138.5895  164.0800 C.3     1  UNL1        0.0199
     23 C         141.4850  137.8400  164.4346 C.3     1  UNL1        0.0017
     24 C         141.3660  137.3674  163.0160 C.3     1  UNL1        0.0001
     25 C         142.6160  138.1169  162.6614 C.3     1  UNL1        0.0017
@<TRIPOS>BOND
     1     1     2    2
     2     2     4    1
     3     4     5   ar
     4     5     6   ar
     5     6     7   ar
     6     7     8   ar
     7     8     9   ar
     8     9    10    1
     9    10    11    1
    10    11    12    1
    11    12    13    1
    12    13    14    1
    13     2     3   am
    14     3    21    1
    15    21    22    1
    16    22    23    1
    17    23    24    1
    18    24    25    1
    19    15     3    1
    20    15    16    1
    21    16    17    1
    22    17    18    1
    23    18    19    1
    24     9     4   ar
    25    14    10    1
    26    25    22    1
    27    19    15    1
    28    18    20    1
@<TRIPOS>MOLECULE
*****
 25 28 0 0 0
SMALL
GASTEIGER

@<TRIPOS>ATOM
      1 O         142.1717  139.5776  164.0005 O.2     1  UNL1       -0.2699
      2 C         141.3244  140.7387  163.5717 C.2     1  UNL1        0.2487
      3 N         139.8476  140.5593  163.3804 N.am    1  UNL1       -0.2763
      4 C         141.9541  142.0794  163.3342 C.ar    1  UNL1        0.0496
      5 C         142.2850  142.5158  161.9378 C.ar    1  UNL1        0.0042
      6 C         142.9146  143.8563  161.7003 C.ar    1  UNL1        0.0001
      7 C         143.2133  144.7605  162.8593 C.ar    1  UNL1       -0.0003
      8 C         142.8824  144.3241  164.2557 C.ar    1  UNL1       -0.0041
      9 C         142.2528  142.9836  164.4932 C.ar    1  UNL1       -0.0181
     10 C         141.9219  142.5471  165.8897 C.3     1  UNL1        0.0225
     11 C         140.5997  142.7185  166.5770 C.3     1  UNL1        0.0044
     12 C         140.7157  142.1400  167.9560 C.3     1  UNL1        0.0003
     13 C         142.1097  141.6110  168.1211 C.3     1  UNL1        0.0003
     14 C         142.8551  141.8627  166.8439 C.3     1  UNL1        0.0044
     15 C         139.0003  141.7205  162.9516 C.3     1  UNL1        0.0927
     16 C         138.4784  142.8080  163.8433 C.3     1  UNL1        0.0383
     17 C         137.6818  143.7577  162.9986 C.3     1  UNL1        0.0704
     18 N         137.7113  143.2571  161.5848 N.3     1  UNL1       -0.2960
     19 C         138.5262  141.9981  161.5558 C.3     1  UNL1        0.0887
     20 H         138.1361  143.9584  160.9781 H       1  UNL1        0.1233
     21 C         139.2179  139.2188  163.6179 C.3     1  UNL1        0.0936
     22 C         138.6466  138.8864  164.9645 C.3     1  UNL1        0.0199
     23 C         138.1227  139.6854  166.1209 C.3     1  UNL1        0.0017
     24 C         137.8387  138.4165  166.8687 C.3     1  UNL1        0.0001
     25 C         138.3626  137.6176  165.7124 C.3     1  UNL1        0.0017
@<TRIPOS>BOND
     1     1     2    2
     2     2     4    1
     3     4     5   ar
     4     5     6   ar
     5     6     7   ar
     6     7     8   ar
     7     8     9   ar
     8     9    10    1
     9    10    11    1
    10    11    12    1
    11    12    13    1
    12    13    14    1
    13     2     3   am
    14     3    21    1
    15    21    22    1
    16    22    23    1
    17    23    24    1
    18    24    25    1
    19    15     3    1
    20    15    16    1
    21    16    17    1
    22    17    18    1
    23    18    19    1
    24     9     4   ar
    25    14    10    1
    26    25    22    1
    27    19    15    1
    28    18    20    1
@<TRIPOS>MOLECULE
*****
 25 28 0 0 0
SMALL
GASTEIGER

@<TRIPOS>ATOM
      1 O         143.0204  139.6067  167.2121 O.2     1  UNL1       -0.2699
      2 C         141.8656  140.3326  166.5879 C.2     1  UNL1        0.2487
      3 N         142.0828  141.6643  165.9326 N.am    1  UNL1       -0.2763
      4 C         140.4937  139.7268  166.6191 C.ar    1  UNL1        0.0496
      5 C         139.9671  139.0004  165.4170 C.ar    1  UNL1        0.0042
      6 C         138.5953  138.3947  165.4482 C.ar    1  UNL1        0.0001
      7 C         137.7500  138.5154  166.6815 C.ar    1  UNL1       -0.0003
      8 C         138.2766  139.2418  167.8836 C.ar    1  UNL1       -0.0041
      9 C         139.6484  139.8475  167.8524 C.ar    1  UNL1       -0.0181
     10 C         140.1751  140.5739  169.0545 C.3     1  UNL1        0.0225
     11 C         140.9406  139.9612  170.1896 C.3     1  UNL1        0.0044
     12 C         141.2673  141.0492  171.1691 C.3     1  UNL1        0.0003
     13 C         140.7036  142.3344  170.6394 C.3     1  UNL1        0.0003
     14 C         140.0286  142.0407  169.3325 C.3     1  UNL1        0.0044
     15 C         140.9279  142.3902  165.3084 C.3     1  UNL1        0.0927
     16 C         139.9716  143.3016  166.0188 C.3     1  UNL1        0.0383
     17 C         138.9794  143.8068  165.0137 C.3     1  UNL1        0.0704
     18 N         139.3225  143.2076  163.6821 N.3     1  UNL1       -0.2960
     19 C         140.5268  142.3321  163.8642 C.3     1  UNL1        0.0887
     20 H         139.5311  143.9483  163.0126 H       1  UNL1        0.1233
     21 C         143.4546  142.2701  165.9014 C.3     1  UNL1        0.0936
     22 C         144.3467  142.0460  164.7165 C.3     1  UNL1        0.0199
     23 C         144.8059  142.8850  163.5609 C.3     1  UNL1        0.0017
     24 C         145.6082  141.7292  163.0408 C.3     1  UNL1        0.0001
     25 C         145.1490  140.8904  164.1963 C.3     1  UNL1        0.0017
@<TRIPOS>BOND
     1     1     2    2
     2     2     4    1
     3     4     5   ar
     4     5     6   ar
     5     6     7   ar
     6     7     8   ar
     7     8     9   ar
     8     9    10    1
     9    10    11    1
    10    11    12    1
    11    12    13    1
    12    13    14    1
    13     2     3   am
    14     3    21    1
    15    21    22    1
    16    22    23    1
    17    23    24    1
    18    24    25    1
    19    15     3    1
    20    15    16    1
    21    16    17    1
    22    17    18    1
    23    18    19    1
    24     9     4   ar
    25    14    10    1
    26    25    22    1
    27    19    15    1
    28    18    20    1
@<TRIPOS>MOLECULE
*****
 25 28 0 0 0
SMALL
GASTEIGER

@<TRIPOS>ATOM
      1 O         139.4967  140.0420  167.4417 O.2     1  UNL1       -0.2699
      2 C         139.6232  141.0621  166.3493 C.2     1  UNL1        0.2487
      3 N         140.0705  142.4566  166.6735 N.am    1  UNL1       -0.2763
      4 C         139.3023  140.6877  164.9327 C.ar    1  UNL1        0.0496
      5 C         137.9635  141.0325  164.3507 C.ar    1  UNL1        0.0042
      6 C         137.6426  140.6581  162.9341 C.ar    1  UNL1        0.0001
      7 C         138.6605  139.9388  162.0995 C.ar    1  UNL1       -0.0003
      8 C         139.9993  139.5940  162.6814 C.ar    1  UNL1       -0.0041
      9 C         140.3201  139.9684  164.0980 C.ar    1  UNL1       -0.0181
     10 C         141.6590  139.6236  164.6801 C.3     1  UNL1        0.0225
     11 C         141.9804  138.4022  165.4893 C.3     1  UNL1        0.0044
     12 C         143.4315  138.4634  165.8644 C.3     1  UNL1        0.0003
     13 C         144.0068  139.7226  165.2871 C.3     1  UNL1        0.0003
     14 C         142.9113  140.4397  164.5552 C.3     1  UNL1        0.0044
     15 C         140.1970  143.4767  165.5811 C.3     1  UNL1        0.0927
     16 C         141.4043  143.7010  164.7196 C.3     1  UNL1        0.0383
     17 C         141.0917  144.8146  163.7644 C.3     1  UNL1        0.0704
     18 N         139.6912  145.2785  164.0356 N.3     1  UNL1       -0.2960
     19 C         139.1383  144.4517  165.1583 C.3     1  UNL1        0.0887
     20 H         139.1182  145.1560  163.2007 H       1  UNL1        0.1233
     21 C         140.3915  142.8310  168.0901 C.3     1  UNL1        0.0936
     22 C         141.7723  142.6057  168.6311 C.3     1  UNL1        0.0199
     23 C         142.4316  142.7895  169.9658 C.3     1  UNL1        0.0017
     24 C         143.7250  142.2870  169.3960 C.3     1  UNL1        0.0001
     25 C         143.0657  142.1032  168.0614 C.3     1  UNL1        0.0017
@<TRIPOS>BOND
     1     1     2    2
     2     2     4    1
     3     4     5   ar
     4     5     6   ar
     5     6     7   ar
     6     7     8   ar
     7     8     9   ar
     8     9    10    1
     9    10    11    1
    10    11    12    1
    11    12    13    1
    12    13    14    1
    13     2     3   am
    14     3    21    1
    15    21    22    1
    16    22    23    1
    17    23    24    1
    18    24    25    1
    19    15     3    1
    20    15    16    1
    21    16    17    1
    22    17    18    1
    23    18    19    1
    24     9     4   ar
    25    14    10    1
    26    25    22    1
    27    19    15    1
    28    18    20    1
@<TRIPOS>MOLECULE
*****
 25 28 0 0 0
SMALL
GASTEIGER

@<TRIPOS>ATOM
      1 O         141.6530  141.6367  166.7539 O.2     1  UNL1       -0.2699
      2 C         140.6177  141.3148  165.7173 C.2     1  UNL1        0.2487
      3 N         140.1747  142.3694  164.7469 N.am    1  UNL1       -0.2763
      4 C         140.0252  139.9383  165.6511 C.ar    1  UNL1        0.0496
      5 C         138.6950  139.6630  166.2871 C.ar    1  UNL1        0.0042
      6 C         138.1026  138.2865  166.2208 C.ar    1  UNL1        0.0001
      7 C         138.8405  137.1854  165.5187 C.ar    1  UNL1       -0.0003
      8 C         140.1708  137.4608  164.8827 C.ar    1  UNL1       -0.0041
      9 C         140.7632  138.8372  164.9489 C.ar    1  UNL1       -0.0181
     10 C         142.0935  139.1127  164.3130 C.3     1  UNL1        0.0225
     11 C         143.4271  139.0534  164.9972 C.3     1  UNL1        0.0044
     12 C         144.4815  139.3998  163.9882 C.3     1  UNL1        0.0003
     13 C         143.7997  139.6732  162.6804 C.3     1  UNL1        0.0003
     14 C         142.3239  139.4957  162.8811 C.3     1  UNL1        0.0044
     15 C         139.1394  142.0475  163.7103 C.3     1  UNL1        0.0927
     16 C         139.4087  141.5826  162.3099 C.3     1  UNL1        0.0383
     17 C         138.0887  141.3817  161.6263 C.3     1  UNL1        0.0704
     18 N         137.0036  141.7225  162.6043 N.3     1  UNL1       -0.2960
     19 C         137.6530  142.1340  163.8923 C.3     1  UNL1        0.0887
     20 H         136.4101  140.9078  162.7606 H       1  UNL1        0.1233
     21 C         140.7671  143.7459  164.8131 C.3     1  UNL1        0.0936
     22 C         142.0991  144.0204  164.1803 C.3     1  UNL1        0.0199
     23 C         143.2796  143.1824  163.7873 C.3     1  UNL1        0.0017
     24 C         143.9829  144.4086  163.2855 C.3     1  UNL1        0.0001
     25 C         142.8026  145.2465  163.6785 C.3     1  UNL1        0.0017
@<TRIPOS>BOND
     1     1     2    2
     2     2     4    1
     3     4     5   ar
     4     5     6   ar
     5     6     7   ar
     6     7     8   ar
     7     8     9   ar
     8     9    10    1
     9    10    11    1
    10    11    12    1
    11    12    13    1
    12    13    14    1
    13     2     3   am
    14     3    21    1
    15    21    22    1
    16    22    23    1
    17    23    24    1
    18    24    25    1
    19    15     3    1
    20    15    16    1
    21    16    17    1
    22    17    18    1
    23    18    19    1
    24     9     4   ar
    25    14    10    1
    26    25    22    1
    27    19    15    1
    28    18    20    1
@<TRIPOS>MOLECULE
*****
 25 28 0 0 0
SMALL
GASTEIGER

@<TRIPOS>ATOM
      1 O         143.7518  138.2838  166.4921 O.2     1  UNL1       -0.2699
      2 C         142.4671  138.7822  165.8997 C.2     1  UNL1        0.2487
      3 N         141.4738  139.5035  166.7617 N.am    1  UNL1       -0.2763
      4 C         142.1756  138.5593  164.4452 C.ar    1  UNL1        0.0496
      5 C         141.2593  137.4483  164.0256 C.ar    1  UNL1        0.0042
      6 C         140.9678  137.2254  162.5712 C.ar    1  UNL1        0.0001
      7 C         141.5926  138.1136  161.5364 C.ar    1  UNL1       -0.0003
      8 C         142.5089  139.2246  161.9560 C.ar    1  UNL1       -0.0041
      9 C         142.8003  139.4474  163.4104 C.ar    1  UNL1       -0.0181
     10 C         143.7166  140.5585  163.8300 C.3     1  UNL1        0.0225
     11 C         143.2944  141.9096  164.3264 C.3     1  UNL1        0.0044
     12 C         144.5328  142.6996  164.6301 C.3     1  UNL1        0.0003
     13 C         145.7204  141.8367  164.3215 C.3     1  UNL1        0.0003
     14 C         145.2160  140.5135  163.8270 C.3     1  UNL1        0.0044
     15 C         140.1890  140.0020  166.1692 C.3     1  UNL1        0.0927
     16 C         139.9775  141.3368  165.5184 C.3     1  UNL1        0.0383
     17 C         138.5480  141.4128  165.0705 C.3     1  UNL1        0.0704
     18 N         137.8759  140.1250  165.4446 N.3     1  UNL1       -0.2960
     19 C         138.8901  139.2530  166.1236 C.3     1  UNL1        0.0887
     20 H         137.5261  139.6608  164.6063 H       1  UNL1        0.1233
     21 C         141.7652  139.7265  168.2161 C.3     1  UNL1        0.0936
     22 C         142.5953  140.9005  168.6433 C.3     1  UNL1        0.0199
     23 C         143.3282  141.2819  169.8953 C.3     1  UNL1        0.0017
     24 C         143.7693  142.5609  169.2474 C.3     1  UNL1        0.0001
     25 C         143.0366  142.1795  167.9955 C.3     1  UNL1        0.0017
@<TRIPOS>BOND
     1     1     2    2
     2     2     4    1
     3     4     5   ar
     4     5     6   ar
     5     6     7   ar
     6     7     8   ar
     7     8     9   ar
     8     9    10    1
     9    10    11    1
    10    11    12    1
    11    12    13    1
    12    13    14    1
    13     2     3   am
    14     3    21    1
    15    21    22    1
    16    22    23    1
    17    23    24    1
    18    24    25    1
    19    15     3    1
    20    15    16    1
    21    16    17    1
    22    17    18    1
    23    18    19    1
    24     9     4   ar
    25    14    10    1
    26    25    22    1
    27    19    15    1
    28    18    20    1
@<TRIPOS>MOLECULE
*****
 25 28 0 0 0
SMALL
GASTEIGER

@<TRIPOS>ATOM
      1 O         136.9674  141.7608  163.2195 O.2     1  UNL1       -0.2699
      2 C         138.0717  140.7783  163.4750 C.2     1  UNL1        0.2487
      3 N         138.7511  140.0975  162.3240 N.am    1  UNL1       -0.2763
      4 C         138.4965  140.4766  164.8816 C.ar    1  UNL1        0.0496
      5 C         137.9909  139.2434  165.5696 C.ar    1  UNL1        0.0042
      6 C         138.4158  138.9417  166.9762 C.ar    1  UNL1        0.0001
      7 C         139.3463  139.8733  167.6947 C.ar    1  UNL1       -0.0003
      8 C         139.8520  141.1065  167.0067 C.ar    1  UNL1       -0.0041
      9 C         139.4271  141.4082  165.6002 C.ar    1  UNL1       -0.0181
     10 C         139.9327  142.6415  164.9121 C.3     1  UNL1        0.0225
     11 C         139.2286  143.9641  164.8432 C.3     1  UNL1        0.0044
     12 C         140.0919  144.9087  164.0606 C.3     1  UNL1        0.0003
     13 C         141.3297  144.1698  163.6459 C.3     1  UNL1        0.0003
     14 C         141.2313  142.7686  164.1721 C.3     1  UNL1        0.0044
     15 C         139.8554  139.1150  162.5795 C.3     1  UNL1        0.0927
     16 C         141.3088  139.4459  162.7463 C.3     1  UNL1        0.0383
     17 C         142.0518  138.1645  162.9831 C.3     1  UNL1        0.0704
     18 N         141.0574  137.0416  162.9626 N.3     1  UNL1       -0.2960
     19 C         139.7000  137.6291  162.7132 C.3     1  UNL1        0.0887
     20 H         141.0650  136.5561  163.8596 H       1  UNL1        0.1233
     21 C         138.3262  140.3992  160.9174 C.3     1  UNL1        0.0936
     22 C         138.8119  141.6453  160.2382 C.3     1  UNL1        0.0199
     23 C         139.4020  142.9444  160.7010 C.3     1  UNL1        0.0017
     24 C         139.4986  143.4076  159.2776 C.3     1  UNL1        0.0001
     25 C         138.9085  142.1086  158.8148 C.3     1  UNL1        0.0017
@<TRIPOS>BOND
     1     1     2    2
     2     2     4    1
     3     4     5   ar
     4     5     6   ar
     5     6     7   ar
     6     7     8   ar
     7     8     9   ar
     8     9    10    1
     9    10    11    1
    10    11    12    1
    11    12    13    1
    12    13    14    1
    13     2     3   am
    14     3    21    1
    15    21    22    1
    16    22    23    1
    17    23    24    1
    18    24    25    1
    19    15     3    1
    20    15    16    1
    21    16    17    1
    22    17    18    1
    23    18    19    1
    24     9     4   ar
    25    14    10    1
    26    25    22    1
    27    19    15    1
    28    18    20    1
@<TRIPOS>MOLECULE
*****
 25 28 0 0 0
SMALL
GASTEIGER

@<TRIPOS>ATOM
      1 O         140.3732  142.9117  167.7081 O.2     1  UNL1       -0.2699
      2 C         141.0516  142.1548  166.6050 C.2     1  UNL1        0.2487
      3 N         140.7458  140.7015  166.3942 N.am    1  UNL1       -0.2763
      4 C         142.0359  142.8512  165.7126 C.ar    1  UNL1        0.0496
      5 C         143.5058  142.7496  165.9939 C.ar    1  UNL1        0.0042
      6 C         144.4900  143.4460  165.1016 C.ar    1  UNL1        0.0001
      7 C         144.0043  144.2439  163.9279 C.ar    1  UNL1       -0.0003
      8 C         142.5345  144.3455  163.6466 C.ar    1  UNL1       -0.0041
      9 C         141.5503  143.6491  164.5390 C.ar    1  UNL1       -0.0181
     10 C         140.0803  143.7507  164.2577 C.3     1  UNL1        0.0225
     11 C         139.3170  142.9405  163.2523 C.3     1  UNL1        0.0044
     12 C         137.8806  143.3693  163.3058 C.3     1  UNL1        0.0003
     13 C         137.7562  144.4446  164.3442 C.3     1  UNL1        0.0003
     14 C         139.1157  144.6803  164.9326 C.3     1  UNL1        0.0044
     15 C         141.4242  139.9446  165.2910 C.3     1  UNL1        0.0927
     16 C         142.7201  139.1974  165.4018 C.3     1  UNL1        0.0383
     17 C         143.0226  138.5931  164.0627 C.3     1  UNL1        0.0704
     18 N         141.9137  138.9669  163.1242 N.3     1  UNL1       -0.2960
     19 C         140.9258  139.8022  163.8834 C.3     1  UNL1        0.0887
     20 H         141.4577  138.1243  162.7741 H       1  UNL1        0.1233
     21 C         139.7615  140.0051  167.2865 C.3     1  UNL1        0.0936
     22 C         139.9391  140.0463  168.7754 C.3     1  UNL1        0.0199
     23 C         141.0661  139.7434  169.7180 C.3     1  UNL1        0.0017
     24 C         140.1903  140.1046  170.8810 C.3     1  UNL1        0.0001
     25 C         139.0635  140.4075  169.9385 C.3     1  UNL1        0.0017
@<TRIPOS>BOND
     1     1     2    2
     2     2     4    1
     3     4     5   ar
     4     5     6   ar
     5     6     7   ar
     6     7     8   ar
     7     8     9   ar
     8     9    10    1
     9    10    11    1
    10    11    12    1
    11    12    13    1
    12    13    14    1
    13     2     3   am
    14     3    21    1
    15    21    22    1
    16    22    23    1
    17    23    24    1
    18    24    25    1
    19    15     3    1
    20    15    16    1
    21    16    17    1
    22    17    18    1
    23    18    19    1
    24     9     4   ar
    25    14    10    1
    26    25    22    1
    27    19    15    1
    28    18    20    1
@<TRIPOS>MOLECULE
*****
 25 28 0 0 0
SMALL
GASTEIGER

@<TRIPOS>ATOM
      1 O         141.6521  140.7379  162.4562 O.2     1  UNL1       -0.2699
      2 C         141.6614  140.3946  163.9163 C.2     1  UNL1        0.2487
      3 N         142.8419  140.7621  164.7657 N.am    1  UNL1       -0.2763
      4 C         140.4902  139.6837  164.5271 C.ar    1  UNL1        0.0496
      5 C         140.5091  138.1905  164.6674 C.ar    1  UNL1        0.0042
      6 C         139.3380  137.4797  165.2782 C.ar    1  UNL1        0.0001
      7 C         138.1479  138.2622  165.7488 C.ar    1  UNL1       -0.0003
      8 C         138.1290  139.7555  165.6086 C.ar    1  UNL1       -0.0041
      9 C         139.3002  140.4662  164.9977 C.ar    1  UNL1       -0.0181
     10 C         139.2813  141.9596  164.8575 C.3     1  UNL1        0.0225
     11 C         139.8487  142.9443  165.8364 C.3     1  UNL1        0.0044
     12 C         139.6098  144.3237  165.2976 C.3     1  UNL1        0.0003
     13 C         138.8947  144.1914  163.9856 C.3     1  UNL1        0.0003
     14 C         138.6917  142.7303  163.7136 C.3     1  UNL1        0.0044
     15 C         142.8512  140.4188  166.2259 C.3     1  UNL1        0.0927
     16 C         142.6035  141.3719  167.3573 C.3     1  UNL1        0.0383
     17 C         142.7090  140.6043  168.6416 C.3     1  UNL1        0.0704
     18 N         143.0219  139.1766  168.3040 N.3     1  UNL1       -0.2960
     19 C         143.1097  139.0620  166.8109 C.3     1  UNL1        0.0887
     20 H         142.2825  138.5679  168.6549 H       1  UNL1        0.1233
     21 C         144.0130  141.4730  164.1549 C.3     1  UNL1        0.0936
     22 C         143.8956  142.9178  163.7693 C.3     1  UNL1        0.0199
     23 C         144.3543  143.7457  162.6056 C.3     1  UNL1        0.0017
     24 C         143.7296  144.9611  163.2240 C.3     1  UNL1        0.0001
     25 C         143.2709  144.1332  164.3877 C.3     1  UNL1        0.0017
@<TRIPOS>BOND
     1     1     2    2
     2     2     4    1
     3     4     5   ar
     4     5     6   ar
     5     6     7   ar
     6     7     8   ar
     7     8     9   ar
     8     9    10    1
     9    10    11    1
    10    11    12    1
    11    12    13    1
    12    13    14    1
    13     2     3   am
    14     3    21    1
    15    21    22    1
    16    22    23    1
    17    23    24    1
    18    24    25    1
    19    15     3    1
    20    15    16    1
    21    16    17    1
    22    17    18    1
    23    18    19    1
    24     9     4   ar
    25    14    10    1
    26    25    22    1
    27    19    15    1
    28    18    20    1
