@<TRIPOS>MOLECULE
*****
 40 44 0 0 0
SMALL
GASTEIGER

@<TRIPOS>ATOM
      1 N         140.6789  138.4927  162.6864 N.pl3   1  UNL1       -0.3035
      2 C         142.1471  138.1895  162.6347 C.3     1  UNL1        0.1082
      3 C         142.8185  137.9556  161.3139 C.3     1  UNL1        0.0938
      4 N         142.0219  138.0251  160.0448 N.3     1  UNL1       -0.2695
      5 C         140.5538  138.3283  160.0965 C.3     1  UNL1        0.0938
      6 C         139.8823  138.5621  161.4172 C.3     1  UNL1        0.1082
      7 C         141.4413  142.3037  164.9546 C.ar    1  UNL1        0.0594
      8 C         140.7698  142.5375  166.2753 C.ar    1  UNL1        0.0147
      9 C         139.8442  141.5010  166.8400 C.ar    1  UNL1        0.0027
     10 C         139.5900  140.2307  166.0839 C.ar    1  UNL1        0.0189
     11 C         138.6644  139.1942  166.6486 C.ar    1  UNL1        0.0016
     12 C         138.4103  137.9239  165.8926 C.ar    1  UNL1        0.0014
     13 C         139.0818  137.6900  164.5718 C.ar    1  UNL1        0.0160
     14 C         140.0074  138.7265  164.0071 C.ar    1  UNL1        0.0658
     15 C         140.2615  139.9969  164.7632 C.ar    1  UNL1        0.0941
     16 N         141.1872  141.0334  164.1985 N.ar    1  UNL1       -0.2484
     17 C         142.3669  143.3402  164.3899 C.3     1  UNL1        0.0517
     18 C         143.8420  143.0749  164.3285 C.3     1  UNL1        0.0480
     19 O         145.1156  141.6917  162.5356 O.co2   1  UNL1       -0.5492
     20 C         144.5349  142.9942  163.0006 C.2     1  UNL1        0.0507
     21 O         144.6471  144.2160  162.1377 O.co2   1  UNL1       -0.5492
     22 C         142.6934  137.7912  158.7241 C.3     1  UNL1        0.0769
     23 C         142.8025  138.9091  157.7298 C.3     1  UNL1        0.0437
     24 C         142.7088  140.3338  158.1898 C.ar    1  UNL1       -0.0206
     25 C         143.8850  140.9863  158.8539 C.ar    1  UNL1       -0.0011
     26 C         143.7914  142.4109  159.3139 C.ar    1  UNL1        0.0366
     27 C         142.5217  143.1830  159.1098 C.ar    1  UNL1        0.1385
     28 C         141.3456  142.5305  158.4458 C.ar    1  UNL1        0.0366
     29 C         141.4391  141.1059  157.9858 C.ar    1  UNL1       -0.0011
     30 O         142.4281  144.6077  159.5699 O.3     1  UNL1       -0.4754
     31 C         141.2542  145.4502  159.1672 C.3     1  UNL1        0.2068
     32 C         140.2041  145.8054  160.1776 C.3     1  UNL1        0.0646
     33 C         140.4107  145.4676  161.6244 C.3     1  UNL1        0.0759
     34 N         139.5117  144.4737  162.2983 N.3     1  UNL1       -0.2726
     35 C         138.9716  144.8865  163.6354 C.3     1  UNL1        0.0721
     36 C         138.0581  144.1259  164.5504 C.3     1  UNL1        0.0173
     37 C         137.4591  142.7648  164.3542 C.3     1  UNL1        0.0015
     38 C         137.6257  141.8280  163.1946 C.3     1  UNL1        0.0015
     39 C         138.4323  142.0210  161.9447 C.3     1  UNL1        0.0173
     40 C         139.2717  143.1984  161.5459 C.3     1  UNL1        0.0721
@<TRIPOS>UNITY_ATOM_ATTR
19 1
charge -1
@<TRIPOS>BOND
     1    19    20   ar
     2    20    21   ar
     3    20    18    1
     4    18    17    1
     5    17     7    1
     6     7     8   ar
     7     8     9   ar
     8     9    10   ar
     9    10    11   ar
    10    11    12   ar
    11    12    13   ar
    12    13    14   ar
    13    14     1    1
    14     1     2    1
    15     2     3    1
    16     3     4    1
    17     4    22    1
    18    22    23    1
    19    23    24    1
    20    24    25   ar
    21    25    26   ar
    22    26    27   ar
    23    27    30    1
    24    30    31    1
    25    31    32    1
    26    32    33    1
    27    33    34    1
    28    34    35    1
    29    35    36    1
    30    36    37    1
    31    37    38    1
    32    38    39    1
    33    39    40    1
    34    27    28   ar
    35    28    29   ar
    36     4     5    1
    37     5     6    1
    38    14    15   ar
    39    15    16   ar
    40    16     7   ar
    41    15    10   ar
    42     6     1    1
    43    29    24   ar
    44    40    34    1
@<TRIPOS>MOLECULE
*****
 40 44 0 0 0
SMALL
GASTEIGER

@<TRIPOS>ATOM
      1 N         140.7719  143.0773  164.7714 N.pl3   1  UNL1       -0.3035
      2 C         139.4478  143.0461  164.0672 C.3     1  UNL1        0.1082
      3 C         139.1820  143.9849  162.9278 C.3     1  UNL1        0.0938
      4 N         140.2402  144.9548  162.4926 N.3     1  UNL1       -0.2695
      5 C         141.5643  144.9860  163.1968 C.3     1  UNL1        0.0938
      6 C         141.8301  144.0473  164.3362 C.3     1  UNL1        0.1082
      7 C         143.5293  139.5675  164.1985 C.ar    1  UNL1        0.0594
      8 C         143.7951  138.6289  165.3378 C.ar    1  UNL1        0.0147
      9 C         143.1418  138.8601  166.6681 C.ar    1  UNL1        0.0027
     10 C         142.2227  140.0300  166.8591 C.ar    1  UNL1        0.0189
     11 C         141.5694  140.2612  168.1895 C.ar    1  UNL1        0.0016
     12 C         140.6503  141.4311  168.3804 C.ar    1  UNL1        0.0014
     13 C         140.3844  142.3698  167.2411 C.ar    1  UNL1        0.0160
     14 C         141.0377  142.1386  165.9107 C.ar    1  UNL1        0.0658
     15 C         141.9569  140.9686  165.7198 C.ar    1  UNL1        0.0941
     16 N         142.6102  140.7374  164.3895 N.ar    1  UNL1       -0.2484
     17 C         144.1826  139.3363  162.8682 C.3     1  UNL1        0.0517
     18 C         143.4315  139.6279  161.6030 C.3     1  UNL1        0.0480
     19 O         144.0923  139.3050  159.1112 O.co2   1  UNL1       -0.5492
     20 C         143.5993  138.7362  160.4086 C.2     1  UNL1        0.0507
     21 O         143.2741  137.2754  160.5117 O.co2   1  UNL1       -0.5492
     22 C         139.9744  145.8934  161.3533 C.3     1  UNL1        0.0769
     23 C         140.5945  145.6388  160.0114 C.3     1  UNL1        0.0437
     24 C         140.6855  144.2386  159.4808 C.ar    1  UNL1       -0.0206
     25 C         139.5148  143.6290  158.7682 C.ar    1  UNL1       -0.0011
     26 C         139.6058  142.2290  158.2377 C.ar    1  UNL1        0.0366
     27 C         140.8676  141.4385  158.4197 C.ar    1  UNL1        0.1385
     28 C         142.0383  142.0482  159.1323 C.ar    1  UNL1        0.0366
     29 C         141.9473  143.4482  159.6629 C.ar    1  UNL1       -0.0011
     30 O         140.9586  140.0384  157.8892 O.3     1  UNL1       -0.4754
     31 C         139.8536  139.0607  158.1593 C.3     1  UNL1        0.2068
     32 C         139.6805  138.4855  159.5338 C.3     1  UNL1        0.0646
     33 C         139.1230  139.3347  160.6374 C.3     1  UNL1        0.0759
     34 N         139.3025  138.9188  162.0674 N.3     1  UNL1       -0.2726
     35 C         140.3188  137.8426  162.3095 C.3     1  UNL1        0.0721
     36 C         140.7256  137.2159  163.6103 C.3     1  UNL1        0.0173
     37 C         140.2164  137.5107  164.9901 C.3     1  UNL1        0.0015
     38 C         139.1748  138.5050  165.4100 C.3     1  UNL1        0.0015
     39 C         138.3849  139.4501  164.5537 C.3     1  UNL1        0.0173
     40 C         138.4418  139.6342  163.0662 C.3     1  UNL1        0.0721
@<TRIPOS>UNITY_ATOM_ATTR
19 1
charge -1
@<TRIPOS>BOND
     1    19    20   ar
     2    20    21   ar
     3    20    18    1
     4    18    17    1
     5    17     7    1
     6     7     8   ar
     7     8     9   ar
     8     9    10   ar
     9    10    11   ar
    10    11    12   ar
    11    12    13   ar
    12    13    14   ar
    13    14     1    1
    14     1     2    1
    15     2     3    1
    16     3     4    1
    17     4    22    1
    18    22    23    1
    19    23    24    1
    20    24    25   ar
    21    25    26   ar
    22    26    27   ar
    23    27    30    1
    24    30    31    1
    25    31    32    1
    26    32    33    1
    27    33    34    1
    28    34    35    1
    29    35    36    1
    30    36    37    1
    31    37    38    1
    32    38    39    1
    33    39    40    1
    34    27    28   ar
    35    28    29   ar
    36     4     5    1
    37     5     6    1
    38    14    15   ar
    39    15    16   ar
    40    16     7   ar
    41    15    10   ar
    42     6     1    1
    43    29    24   ar
    44    40    34    1
@<TRIPOS>MOLECULE
*****
 40 44 0 0 0
SMALL
GASTEIGER

@<TRIPOS>ATOM
      1 N         140.8704  143.0168  164.8935 N.pl3   1  UNL1       -0.3035
      2 C         142.0649  143.7521  164.3619 C.3     1  UNL1        0.1082
      3 C         141.9067  144.7160  163.2235 C.3     1  UNL1        0.0938
      4 N         140.5541  144.9446  162.6167 N.3     1  UNL1       -0.2695
      5 C         139.3597  144.2093  163.1483 C.3     1  UNL1        0.0938
      6 C         139.5178  143.2455  164.2867 C.3     1  UNL1        0.1082
      7 C         143.6226  139.4805  164.4817 C.ar    1  UNL1        0.0594
      8 C         143.7807  138.5166  165.6200 C.ar    1  UNL1        0.0147
      9 C         143.0214  138.7315  166.8957 C.ar    1  UNL1        0.0027
     10 C         142.1040  139.9103  167.0330 C.ar    1  UNL1        0.0189
     11 C         141.3448  140.1252  168.3087 C.ar    1  UNL1        0.0016
     12 C         140.4274  141.3040  168.4460 C.ar    1  UNL1        0.0014
     13 C         140.2692  142.2679  167.3075 C.ar    1  UNL1        0.0160
     14 C         141.0285  142.0530  166.0319 C.ar    1  UNL1        0.0658
     15 C         141.9459  140.8741  165.8946 C.ar    1  UNL1        0.0941
     16 N         142.7052  140.6592  164.6190 N.ar    1  UNL1       -0.2484
     17 C         144.3818  139.2656  163.2060 C.3     1  UNL1        0.0517
     18 C         144.3982  140.3344  162.1538 C.3     1  UNL1        0.0480
     19 O         146.2542  141.6867  163.3689 O.co2   1  UNL1       -0.5492
     20 C         145.0956  141.6360  162.4177 C.2     1  UNL1        0.0507
     21 O         144.6342  142.8869  161.7302 O.co2   1  UNL1       -0.5492
     22 C         140.3960  145.9084  161.4783 C.3     1  UNL1        0.0769
     23 C         139.9725  145.4113  160.1280 C.3     1  UNL1        0.0437
     24 C         140.3583  144.0321  159.6816 C.ar    1  UNL1       -0.0206
     25 C         141.8008  143.6972  159.4427 C.ar    1  UNL1       -0.0011
     26 C         142.1866  142.3182  158.9964 C.ar    1  UNL1        0.0366
     27 C         141.1299  141.2740  158.7889 C.ar    1  UNL1        0.1385
     28 C         139.6874  141.6089  159.0278 C.ar    1  UNL1        0.0366
     29 C         139.3016  142.9880  159.4741 C.ar    1  UNL1       -0.0011
     30 O         141.5157  139.8949  158.3425 O.3     1  UNL1       -0.4754
     31 C         141.9502  138.8740  159.3519 C.3     1  UNL1        0.2068
     32 C         141.4907  138.9840  160.7755 C.3     1  UNL1        0.0646
     33 C         140.1086  138.5407  161.1539 C.3     1  UNL1        0.0759
     34 N         139.6279  138.7062  162.5652 N.3     1  UNL1       -0.2726
     35 C         138.6590  139.8278  162.7954 C.3     1  UNL1        0.0721
     36 C         138.0026  140.2484  164.0770 C.3     1  UNL1        0.0173
     37 C         138.1530  139.6512  165.4448 C.3     1  UNL1        0.0015
     38 C         138.9970  138.4859  165.8688 C.3     1  UNL1        0.0015
     39 C         139.8991  137.6300  165.0298 C.3     1  UNL1        0.0173
     40 C         140.1798  137.7281  163.5596 C.3     1  UNL1        0.0721
@<TRIPOS>UNITY_ATOM_ATTR
19 1
charge -1
@<TRIPOS>BOND
     1    19    20   ar
     2    20    21   ar
     3    20    18    1
     4    18    17    1
     5    17     7    1
     6     7     8   ar
     7     8     9   ar
     8     9    10   ar
     9    10    11   ar
    10    11    12   ar
    11    12    13   ar
    12    13    14   ar
    13    14     1    1
    14     1     2    1
    15     2     3    1
    16     3     4    1
    17     4    22    1
    18    22    23    1
    19    23    24    1
    20    24    25   ar
    21    25    26   ar
    22    26    27   ar
    23    27    30    1
    24    30    31    1
    25    31    32    1
    26    32    33    1
    27    33    34    1
    28    34    35    1
    29    35    36    1
    30    36    37    1
    31    37    38    1
    32    38    39    1
    33    39    40    1
    34    27    28   ar
    35    28    29   ar
    36     4     5    1
    37     5     6    1
    38    14    15   ar
    39    15    16   ar
    40    16     7   ar
    41    15    10   ar
    42     6     1    1
    43    29    24   ar
    44    40    34    1
@<TRIPOS>MOLECULE
*****
 40 44 0 0 0
SMALL
GASTEIGER

@<TRIPOS>ATOM
      1 N         140.1471  138.5627  159.7057 N.pl3   1  UNL1       -0.3035
      2 C         139.0343  138.3007  160.6767 C.3     1  UNL1        0.1082
      3 C         139.3453  137.8053  162.0580 C.3     1  UNL1        0.0938
      4 N         140.7691  137.5717  162.4682 N.3     1  UNL1       -0.2695
      5 C         141.8819  137.8336  161.4971 C.3     1  UNL1        0.0938
      6 C         141.5710  138.3291  160.1159 C.3     1  UNL1        0.1082
      7 C         139.5109  142.9583  158.9823 C.ar    1  UNL1        0.0594
      8 C         139.2000  143.4538  157.6011 C.ar    1  UNL1        0.0147
      9 C         139.1011  142.4840  156.4610 C.ar    1  UNL1        0.0027
     10 C         139.3132  141.0188  156.7021 C.ar    1  UNL1        0.0189
     11 C         139.2143  140.0491  155.5620 C.ar    1  UNL1        0.0016
     12 C         139.4264  138.5839  155.8031 C.ar    1  UNL1        0.0014
     13 C         139.7374  138.0884  157.1844 C.ar    1  UNL1        0.0160
     14 C         139.8362  139.0581  158.3245 C.ar    1  UNL1        0.0658
     15 C         139.6241  140.5234  158.0833 C.ar    1  UNL1        0.0941
     16 N         139.7230  141.4931  159.2234 N.ar    1  UNL1       -0.2484
     17 C         139.6098  143.9281  160.1224 C.3     1  UNL1        0.0517
     18 C         140.5498  145.0937  160.0361 C.3     1  UNL1        0.0480
     19 O         142.1764  145.9036  158.1792 O.co2   1  UNL1       -0.5492
     20 C         141.8473  144.9577  159.2959 C.2     1  UNL1        0.0507
     21 O         142.8157  143.8757  159.6722 O.co2   1  UNL1       -0.5492
     22 C         141.0800  137.0763  163.8494 C.3     1  UNL1        0.0769
     23 C         140.7174  137.9080  165.0438 C.3     1  UNL1        0.0437
     24 C         141.4959  139.1517  165.3560 C.ar    1  UNL1       -0.0206
     25 C         140.8631  140.2515  166.1559 C.ar    1  UNL1       -0.0011
     26 C         141.6415  141.4952  166.4681 C.ar    1  UNL1        0.0366
     27 C         143.0526  141.6389  165.9804 C.ar    1  UNL1        0.1385
     28 C         143.6854  140.5390  165.1805 C.ar    1  UNL1        0.0366
     29 C         142.9070  139.2954  164.8683 C.ar    1  UNL1       -0.0011
     30 O         143.8311  142.8825  166.2925 O.3     1  UNL1       -0.4754
     31 C         144.5654  143.6017  165.2000 C.3     1  UNL1        0.2068
     32 C         143.8663  144.6565  164.3948 C.3     1  UNL1        0.0646
     33 C         143.1057  144.2758  163.1593 C.3     1  UNL1        0.0759
     34 N         141.7906  143.5639  163.2777 N.3     1  UNL1       -0.2726
     35 C         140.7305  144.2812  164.0598 C.3     1  UNL1        0.0721
     36 C         139.3275  143.8406  164.3557 C.3     1  UNL1        0.0173
     37 C         138.6382  142.5740  163.9426 C.3     1  UNL1        0.0015
     38 C         139.1816  141.4352  163.1316 C.3     1  UNL1        0.0015
     39 C         140.5485  141.2817  162.5333 C.3     1  UNL1        0.0173
     40 C         141.7096  142.2291  162.5984 C.3     1  UNL1        0.0721
@<TRIPOS>UNITY_ATOM_ATTR
19 1
charge -1
@<TRIPOS>BOND
     1    19    20   ar
     2    20    21   ar
     3    20    18    1
     4    18    17    1
     5    17     7    1
     6     7     8   ar
     7     8     9   ar
     8     9    10   ar
     9    10    11   ar
    10    11    12   ar
    11    12    13   ar
    12    13    14   ar
    13    14     1    1
    14     1     2    1
    15     2     3    1
    16     3     4    1
    17     4    22    1
    18    22    23    1
    19    23    24    1
    20    24    25   ar
    21    25    26   ar
    22    26    27   ar
    23    27    30    1
    24    30    31    1
    25    31    32    1
    26    32    33    1
    27    33    34    1
    28    34    35    1
    29    35    36    1
    30    36    37    1
    31    37    38    1
    32    38    39    1
    33    39    40    1
    34    27    28   ar
    35    28    29   ar
    36     4     5    1
    37     5     6    1
    38    14    15   ar
    39    15    16   ar
    40    16     7   ar
    41    15    10   ar
    42     6     1    1
    43    29    24   ar
    44    40    34    1
@<TRIPOS>MOLECULE
*****
 40 44 0 0 0
SMALL
GASTEIGER

@<TRIPOS>ATOM
      1 N         140.5449  143.9730  159.5218 N.pl3   1  UNL1       -0.3035
      2 C         139.5744  142.8882  159.8842 C.3     1  UNL1        0.1082
      3 C         138.6699  143.0561  161.0690 C.3     1  UNL1        0.0938
      4 N         138.7360  144.3088  161.8914 N.3     1  UNL1       -0.2695
      5 C         139.7065  145.3936  161.5290 C.3     1  UNL1        0.0938
      6 C         140.6109  145.2257  160.3443 C.3     1  UNL1        0.1082
      7 C         139.8698  146.4262  155.8103 C.ar    1  UNL1        0.0594
      8 C         140.7743  146.2584  154.6255 C.ar    1  UNL1        0.0147
      9 C         141.9038  145.2727  154.6779 C.ar    1  UNL1        0.0027
     10 C         142.1289  144.4550  155.9151 C.ar    1  UNL1        0.0189
     11 C         143.2584  143.4694  155.9675 C.ar    1  UNL1        0.0016
     12 C         143.4834  142.6516  157.2046 C.ar    1  UNL1        0.0014
     13 C         142.5789  142.8195  158.3895 C.ar    1  UNL1        0.0160
     14 C         141.4494  143.8051  158.3371 C.ar    1  UNL1        0.0658
     15 C         141.2244  144.6229  157.0998 C.ar    1  UNL1        0.0941
     16 N         140.0949  145.6085  157.0474 N.ar    1  UNL1       -0.2484
     17 C         138.7403  147.4119  155.7579 C.3     1  UNL1        0.0517
     18 C         138.9920  148.8172  155.2980 C.3     1  UNL1        0.0480
     19 O         138.1269  151.2657  155.3786 O.co2   1  UNL1       -0.5492
     20 C         138.4315  149.9721  156.0740 C.2     1  UNL1        0.0507
     21 O         138.1757  149.8332  157.5456 O.co2   1  UNL1       -0.5492
     22 C         137.8315  144.4766  163.0762 C.3     1  UNL1        0.0769
     23 C         138.4084  144.5198  164.4601 C.3     1  UNL1        0.0437
     24 C         139.0023  143.2817  165.0640 C.ar    1  UNL1       -0.0206
     25 C         138.4273  141.9362  164.7338 C.ar    1  UNL1       -0.0011
     26 C         139.0210  140.6981  165.3377 C.ar    1  UNL1        0.0366
     27 C         140.1898  140.8056  166.2717 C.ar    1  UNL1        0.1385
     28 C         140.7647  142.1511  166.6019 C.ar    1  UNL1        0.0366
     29 C         140.1710  143.3892  165.9981 C.ar    1  UNL1       -0.0011
     30 O         140.7836  139.5676  166.8756 O.3     1  UNL1       -0.4754
     31 C         142.2667  139.3481  166.8301 C.3     1  UNL1        0.2068
     32 C         142.8810  138.6121  165.6765 C.3     1  UNL1        0.0646
     33 C         143.7466  139.3448  164.6947 C.3     1  UNL1        0.0759
     34 N         143.4500  140.7754  164.3550 N.3     1  UNL1       -0.2726
     35 C         144.2787  141.7998  165.0718 C.3     1  UNL1        0.0721
     36 C         144.2259  143.2943  164.9540 C.3     1  UNL1        0.0173
     37 C         143.3314  144.1334  164.0904 C.3     1  UNL1        0.0015
     38 C         142.2688  143.6852  163.1312 C.3     1  UNL1        0.0015
     39 C         141.8382  142.2873  162.7988 C.3     1  UNL1        0.0173
     40 C         142.3639  140.9924  163.3434 C.3     1  UNL1        0.0721
@<TRIPOS>UNITY_ATOM_ATTR
19 1
charge -1
@<TRIPOS>BOND
     1    19    20   ar
     2    20    21   ar
     3    20    18    1
     4    18    17    1
     5    17     7    1
     6     7     8   ar
     7     8     9   ar
     8     9    10   ar
     9    10    11   ar
    10    11    12   ar
    11    12    13   ar
    12    13    14   ar
    13    14     1    1
    14     1     2    1
    15     2     3    1
    16     3     4    1
    17     4    22    1
    18    22    23    1
    19    23    24    1
    20    24    25   ar
    21    25    26   ar
    22    26    27   ar
    23    27    30    1
    24    30    31    1
    25    31    32    1
    26    32    33    1
    27    33    34    1
    28    34    35    1
    29    35    36    1
    30    36    37    1
    31    37    38    1
    32    38    39    1
    33    39    40    1
    34    27    28   ar
    35    28    29   ar
    36     4     5    1
    37     5     6    1
    38    14    15   ar
    39    15    16   ar
    40    16     7   ar
    41    15    10   ar
    42     6     1    1
    43    29    24   ar
    44    40    34    1
@<TRIPOS>MOLECULE
*****
 40 44 0 0 0
SMALL
GASTEIGER

@<TRIPOS>ATOM
      1 N         139.3257  139.6023  165.7921 N.pl3   1  UNL1       -0.3035
      2 C         139.9028  138.3178  165.2755 C.3     1  UNL1        0.1082
      3 C         139.5163  137.8151  163.9160 C.3     1  UNL1        0.0938
      4 N         138.5528  138.5970  163.0733 N.3     1  UNL1       -0.2695
      5 C         137.9757  139.8816  163.5899 C.3     1  UNL1        0.0938
      6 C         138.3622  140.3842  164.9492 C.3     1  UNL1        0.1082
      7 C         143.1427  141.9240  166.3311 C.ar    1  UNL1        0.0594
      8 C         143.5291  142.4266  167.6905 C.ar    1  UNL1        0.0147
      9 C         142.6433  142.1555  168.8702 C.ar    1  UNL1        0.0027
     10 C         141.3709  141.3816  168.6905 C.ar    1  UNL1        0.0189
     11 C         140.4851  141.1105  169.8702 C.ar    1  UNL1        0.0016
     12 C         139.2128  140.3366  169.6906 C.ar    1  UNL1        0.0014
     13 C         138.8263  139.8339  168.3312 C.ar    1  UNL1        0.0160
     14 C         139.7121  140.1050  167.1515 C.ar    1  UNL1        0.0658
     15 C         140.9845  140.8789  167.3312 C.ar    1  UNL1        0.0941
     16 N         141.8704  141.1501  166.1515 N.ar    1  UNL1       -0.2484
     17 C         144.0286  142.1951  165.1514 C.3     1  UNL1        0.0517
     18 C         143.7754  141.4983  163.8475 C.3     1  UNL1        0.0480
     19 O         145.1037  139.4268  164.6806 O.co2   1  UNL1       -0.5492
     20 C         144.3975  140.1601  163.5791 C.2     1  UNL1        0.0507
     21 O         144.3133  139.5551  162.2090 O.co2   1  UNL1       -0.5492
     22 C         138.1664  138.0943  161.7139 C.3     1  UNL1        0.0769
     23 C         139.1688  138.1031  160.5981 C.3     1  UNL1        0.0437
     24 C         139.9396  139.3531  160.2922 C.ar    1  UNL1       -0.0206
     25 C         139.2506  140.6852  160.3219 C.ar    1  UNL1       -0.0011
     26 C         140.0213  141.9352  160.0160 C.ar    1  UNL1        0.0366
     27 C         141.4809  141.8530  159.6805 C.ar    1  UNL1        0.1385
     28 C         142.1699  140.5209  159.6508 C.ar    1  UNL1        0.0366
     29 C         141.3992  139.2710  159.9566 C.ar    1  UNL1       -0.0011
     30 O         142.2517  143.1030  159.3746 O.3     1  UNL1       -0.4754
     31 C         141.5345  144.3245  158.8808 C.3     1  UNL1        0.2068
     32 C         141.2753  145.4703  159.8135 C.3     1  UNL1        0.0646
     33 C         139.9632  145.5691  160.5337 C.3     1  UNL1        0.0759
     34 N         139.8445  145.0794  161.9466 N.3     1  UNL1       -0.2726
     35 C         141.1387  144.8930  162.6816 C.3     1  UNL1        0.0721
     36 C         141.3552  144.4220  164.0893 C.3     1  UNL1        0.0173
     37 C         140.3312  144.0213  165.1094 C.3     1  UNL1        0.0015
     38 C         138.8376  143.9924  164.9739 C.3     1  UNL1        0.0015
     39 C         137.9991  144.3573  163.7848 C.3     1  UNL1        0.0173
     40 C         138.4473  144.8410  162.4375 C.3     1  UNL1        0.0721
@<TRIPOS>UNITY_ATOM_ATTR
19 1
charge -1
@<TRIPOS>BOND
     1    19    20   ar
     2    20    21   ar
     3    20    18    1
     4    18    17    1
     5    17     7    1
     6     7     8   ar
     7     8     9   ar
     8     9    10   ar
     9    10    11   ar
    10    11    12   ar
    11    12    13   ar
    12    13    14   ar
    13    14     1    1
    14     1     2    1
    15     2     3    1
    16     3     4    1
    17     4    22    1
    18    22    23    1
    19    23    24    1
    20    24    25   ar
    21    25    26   ar
    22    26    27   ar
    23    27    30    1
    24    30    31    1
    25    31    32    1
    26    32    33    1
    27    33    34    1
    28    34    35    1
    29    35    36    1
    30    36    37    1
    31    37    38    1
    32    38    39    1
    33    39    40    1
    34    27    28   ar
    35    28    29   ar
    36     4     5    1
    37     5     6    1
    38    14    15   ar
    39    15    16   ar
    40    16     7   ar
    41    15    10   ar
    42     6     1    1
    43    29    24   ar
    44    40    34    1
@<TRIPOS>MOLECULE
*****
 40 44 0 0 0
SMALL
GASTEIGER

@<TRIPOS>ATOM
      1 N         142.5204  143.4407  160.4355 N.pl3   1  UNL1       -0.3035
      2 C         142.1020  143.5983  161.8674 C.3     1  UNL1        0.1082
      3 C         143.0229  143.1659  162.9697 C.3     1  UNL1        0.0938
      4 N         144.3620  142.5760  162.6403 N.3     1  UNL1       -0.2695
      5 C         144.7804  142.4184  161.2085 C.3     1  UNL1        0.0938
      6 C         143.8597  142.8507  160.1061 C.3     1  UNL1        0.1082
      7 C         140.0660  140.3843  158.2255 C.ar    1  UNL1        0.0594
      8 C         139.1452  140.8167  157.1232 C.ar    1  UNL1        0.0147
      9 C         139.0426  142.2678  156.7574 C.ar    1  UNL1        0.0027
     10 C         139.8607  143.2865  157.4941 C.ar    1  UNL1        0.0189
     11 C         139.7581  144.7377  157.1284 C.ar    1  UNL1        0.0016
     12 C         140.5762  145.7564  157.8650 C.ar    1  UNL1        0.0014
     13 C         141.4971  145.3241  158.9675 C.ar    1  UNL1        0.0160
     14 C         141.5997  143.8730  159.3332 C.ar    1  UNL1        0.0658
     15 C         140.7815  142.8542  158.5965 C.ar    1  UNL1        0.0941
     16 N         140.8841  141.4031  158.9622 N.ar    1  UNL1       -0.2484
     17 C         140.1686  138.9332  158.5912 C.3     1  UNL1        0.0517
     18 C         141.2768  138.4616  159.4853 C.3     1  UNL1        0.0480
     19 O         142.8232  137.0162  157.9788 O.co2   1  UNL1       -0.5492
     20 C         142.6329  138.1753  158.9116 C.2     1  UNL1        0.0507
     21 O         143.7988  139.0482  159.2708 O.co2   1  UNL1       -0.5492
     22 C         145.2828  142.1437  163.7427 C.3     1  UNL1        0.0769
     23 C         145.4551  140.6850  164.0472 C.3     1  UNL1        0.0437
     24 C         144.2565  139.7853  164.1104 C.ar    1  UNL1       -0.0206
     25 C         143.5339  139.5888  165.4101 C.ar    1  UNL1       -0.0011
     26 C         142.3353  138.6892  165.4733 C.ar    1  UNL1        0.0366
     27 C         141.8593  137.9861  164.2367 C.ar    1  UNL1        0.1385
     28 C         142.5819  138.1826  162.9370 C.ar    1  UNL1        0.0366
     29 C         143.7805  139.0822  162.8738 C.ar    1  UNL1       -0.0011
     30 O         140.6607  137.0864  164.2999 O.3     1  UNL1       -0.4754
     31 C         139.3135  137.6019  163.8884 C.3     1  UNL1        0.2068
     32 C         138.7520  138.8333  164.5352 C.3     1  UNL1        0.0646
     33 C         138.1153  139.8989  163.6932 C.3     1  UNL1        0.0759
     34 N         138.4527  141.3415  163.9277 N.3     1  UNL1       -0.2726
     35 C         137.6535  142.3338  163.1362 C.3     1  UNL1        0.0721
     36 C         137.7489  143.8308  163.1442 C.3     1  UNL1        0.0173
     37 C         138.6671  144.7051  163.9457 C.3     1  UNL1        0.0015
     38 C         139.7167  144.2984  164.9371 C.3     1  UNL1        0.0015
     39 C         140.1073  142.9170  165.3720 C.3     1  UNL1        0.0173
     40 C         139.5448  141.6011  164.9227 C.3     1  UNL1        0.0721
@<TRIPOS>UNITY_ATOM_ATTR
19 1
charge -1
@<TRIPOS>BOND
     1    19    20   ar
     2    20    21   ar
     3    20    18    1
     4    18    17    1
     5    17     7    1
     6     7     8   ar
     7     8     9   ar
     8     9    10   ar
     9    10    11   ar
    10    11    12   ar
    11    12    13   ar
    12    13    14   ar
    13    14     1    1
    14     1     2    1
    15     2     3    1
    16     3     4    1
    17     4    22    1
    18    22    23    1
    19    23    24    1
    20    24    25   ar
    21    25    26   ar
    22    26    27   ar
    23    27    30    1
    24    30    31    1
    25    31    32    1
    26    32    33    1
    27    33    34    1
    28    34    35    1
    29    35    36    1
    30    36    37    1
    31    37    38    1
    32    38    39    1
    33    39    40    1
    34    27    28   ar
    35    28    29   ar
    36     4     5    1
    37     5     6    1
    38    14    15   ar
    39    15    16   ar
    40    16     7   ar
    41    15    10   ar
    42     6     1    1
    43    29    24   ar
    44    40    34    1
@<TRIPOS>MOLECULE
*****
 40 44 0 0 0
SMALL
GASTEIGER

@<TRIPOS>ATOM
      1 N         139.2064  140.3588  160.7572 N.pl3   1  UNL1       -0.3035
      2 C         140.2474  139.4563  161.3504 C.3     1  UNL1        0.1082
      3 C         140.0508  138.8856  162.7236 C.3     1  UNL1        0.0938
      4 N         138.8132  139.2172  163.5035 N.3     1  UNL1       -0.2695
      5 C         137.7722  140.1196  162.9103 C.3     1  UNL1        0.0938
      6 C         137.9687  140.6904  161.5372 C.3     1  UNL1        0.1082
      7 C         140.3381  144.6856  160.2600 C.ar    1  UNL1        0.0594
      8 C         140.5346  145.2564  158.8868 C.ar    1  UNL1        0.0147
      9 C         140.3540  144.3849  157.6794 C.ar    1  UNL1        0.0027
     10 C         139.9768  142.9426  157.8451 C.ar    1  UNL1        0.0189
     11 C         139.7961  142.0711  156.6377 C.ar    1  UNL1        0.0016
     12 C         139.4189  140.6288  156.8035 C.ar    1  UNL1        0.0014
     13 C         139.2223  140.0580  158.1766 C.ar    1  UNL1        0.0160
     14 C         139.4030  140.9295  159.3841 C.ar    1  UNL1        0.0658
     15 C         139.7802  142.3719  159.2183 C.ar    1  UNL1        0.0941
     16 N         139.9608  143.2434  160.4257 N.ar    1  UNL1       -0.2484
     17 C         140.5187  145.5572  161.4674 C.3     1  UNL1        0.0517
     18 C         140.3574  144.9777  162.8415 C.3     1  UNL1        0.0480
     19 O         138.8604  144.9658  164.9648 O.co2   1  UNL1       -0.5492
     20 C         138.9982  144.9103  163.4722 C.2     1  UNL1        0.0507
     21 O         137.7767  144.7874  162.6103 O.co2   1  UNL1       -0.5492
     22 C         138.6166  138.6465  164.8767 C.3     1  UNL1        0.0769
     23 C         138.8166  139.5129  166.0847 C.3     1  UNL1        0.0437
     24 C         140.0672  140.3295  166.2233 C.ar    1  UNL1       -0.0206
     25 C         140.0136  141.8185  166.0503 C.ar    1  UNL1       -0.0011
     26 C         141.2642  142.6351  166.1889 C.ar    1  UNL1        0.0366
     27 C         142.5683  141.9627  166.5004 C.ar    1  UNL1        0.1385
     28 C         142.6219  140.4737  166.6733 C.ar    1  UNL1        0.0366
     29 C         141.3713  139.6570  166.5348 C.ar    1  UNL1       -0.0011
     30 O         143.8189  142.7793  166.6389 O.3     1  UNL1       -0.4754
     31 C         144.4195  143.4415  165.4345 C.3     1  UNL1        0.2068
     32 C         144.8194  142.6173  164.2467 C.3     1  UNL1        0.0646
     33 C         144.6417  143.1632  162.8609 C.3     1  UNL1        0.0759
     34 N         144.2460  142.2487  161.7397 N.3     1  UNL1       -0.2726
     35 C         144.3401  140.7807  162.0330 C.3     1  UNL1        0.0721
     36 C         144.0199  139.6246  161.1324 C.3     1  UNL1        0.0173
     37 C         143.5265  139.6511  159.7162 C.3     1  UNL1        0.0015
     38 C         143.2314  140.8401  158.8506 C.3     1  UNL1        0.0015
     39 C         143.3569  142.2964  159.1876 C.3     1  UNL1        0.0173
     40 C         143.8084  142.9232  160.4733 C.3     1  UNL1        0.0721
@<TRIPOS>UNITY_ATOM_ATTR
19 1
charge -1
@<TRIPOS>BOND
     1    19    20   ar
     2    20    21   ar
     3    20    18    1
     4    18    17    1
     5    17     7    1
     6     7     8   ar
     7     8     9   ar
     8     9    10   ar
     9    10    11   ar
    10    11    12   ar
    11    12    13   ar
    12    13    14   ar
    13    14     1    1
    14     1     2    1
    15     2     3    1
    16     3     4    1
    17     4    22    1
    18    22    23    1
    19    23    24    1
    20    24    25   ar
    21    25    26   ar
    22    26    27   ar
    23    27    30    1
    24    30    31    1
    25    31    32    1
    26    32    33    1
    27    33    34    1
    28    34    35    1
    29    35    36    1
    30    36    37    1
    31    37    38    1
    32    38    39    1
    33    39    40    1
    34    27    28   ar
    35    28    29   ar
    36     4     5    1
    37     5     6    1
    38    14    15   ar
    39    15    16   ar
    40    16     7   ar
    41    15    10   ar
    42     6     1    1
    43    29    24   ar
    44    40    34    1
@<TRIPOS>MOLECULE
*****
 40 44 0 0 0
SMALL
GASTEIGER

@<TRIPOS>ATOM
      1 N         139.7790  141.6308  162.6447 N.pl3   1  UNL1       -0.3035
      2 C         141.2002  142.1023  162.5565 C.3     1  UNL1        0.1082
      3 C         141.5370  143.3226  161.7517 C.3     1  UNL1        0.0938
      4 N         140.4527  144.0712  161.0351 N.3     1  UNL1       -0.2695
      5 C         139.0314  143.5998  161.1233 C.3     1  UNL1        0.0938
      6 C         138.6946  142.3796  161.9280 C.3     1  UNL1        0.1082
      7 C         140.0876  141.7398  167.1327 C.ar    1  UNL1        0.0594
      8 C         139.7507  140.5197  167.9375 C.ar    1  UNL1        0.0147
      9 C         139.3110  139.2632  167.2462 C.ar    1  UNL1        0.0027
     10 C         139.2081  139.2268  165.7503 C.ar    1  UNL1        0.0189
     11 C         138.7684  137.9703  165.0590 C.ar    1  UNL1        0.0016
     12 C         138.6655  137.9340  163.5630 C.ar    1  UNL1        0.0014
     13 C         139.0024  139.1542  162.7582 C.ar    1  UNL1        0.0160
     14 C         139.4421  140.4107  163.4494 C.ar    1  UNL1        0.0658
     15 C         139.5450  140.4470  164.9455 C.ar    1  UNL1        0.0941
     16 N         139.9847  141.7035  165.6367 N.ar    1  UNL1       -0.2484
     17 C         140.5273  142.9963  167.8240 C.3     1  UNL1        0.0517
     18 C         141.0501  142.9360  169.2286 C.3     1  UNL1        0.0480
     19 O         139.9926  145.0135  170.3756 O.co2   1  UNL1       -0.5492
     20 C         140.2566  143.5372  170.3506 C.2     1  UNL1        0.0507
     21 O         139.7270  142.6619  171.4477 O.co2   1  UNL1       -0.5492
     22 C         140.7895  145.2914  160.2303 C.3     1  UNL1        0.0769
     23 C         141.3425  145.1461  158.8436 C.3     1  UNL1        0.0437
     24 C         141.7710  143.7980  158.3444 C.ar    1  UNL1       -0.0206
     25 C         140.7514  142.8393  157.8047 C.ar    1  UNL1       -0.0011
     26 C         141.1798  141.4912  157.3055 C.ar    1  UNL1        0.0366
     27 C         142.6278  141.1019  157.3462 C.ar    1  UNL1        0.1385
     28 C         143.6474  142.0606  157.8860 C.ar    1  UNL1        0.0366
     29 C         143.2190  143.4087  158.3851 C.ar    1  UNL1       -0.0011
     30 O         143.0563  139.7538  156.8470 O.3     1  UNL1       -0.4754
     31 C         142.9724  138.5585  157.7494 C.3     1  UNL1        0.2068
     32 C         142.7395  138.7436  159.2196 C.3     1  UNL1        0.0646
     33 C         143.8797  139.1219  160.1178 C.3     1  UNL1        0.0759
     34 N         143.6794  139.1719  161.6036 N.3     1  UNL1       -0.2726
     35 C         142.7331  138.1537  162.1673 C.3     1  UNL1        0.0721
     36 C         142.3256  137.9456  163.5958 C.3     1  UNL1        0.0173
     37 C         142.7637  138.7043  164.8134 C.3     1  UNL1        0.0015
     38 C         143.7175  139.8585  164.9031 C.3     1  UNL1        0.0015
     39 C         144.4688  140.5391  163.7975 C.3     1  UNL1        0.0173
     40 C         144.4518  140.2335  162.3291 C.3     1  UNL1        0.0721
@<TRIPOS>UNITY_ATOM_ATTR
19 1
charge -1
@<TRIPOS>BOND
     1    19    20   ar
     2    20    21   ar
     3    20    18    1
     4    18    17    1
     5    17     7    1
     6     7     8   ar
     7     8     9   ar
     8     9    10   ar
     9    10    11   ar
    10    11    12   ar
    11    12    13   ar
    12    13    14   ar
    13    14     1    1
    14     1     2    1
    15     2     3    1
    16     3     4    1
    17     4    22    1
    18    22    23    1
    19    23    24    1
    20    24    25   ar
    21    25    26   ar
    22    26    27   ar
    23    27    30    1
    24    30    31    1
    25    31    32    1
    26    32    33    1
    27    33    34    1
    28    34    35    1
    29    35    36    1
    30    36    37    1
    31    37    38    1
    32    38    39    1
    33    39    40    1
    34    27    28   ar
    35    28    29   ar
    36     4     5    1
    37     5     6    1
    38    14    15   ar
    39    15    16   ar
    40    16     7   ar
    41    15    10   ar
    42     6     1    1
    43    29    24   ar
    44    40    34    1
