@<TRIPOS>MOLECULE
*****
 39 44 0 0 0
SMALL
GASTEIGER

@<TRIPOS>ATOM
      1 C         139.7427  141.3467  164.2889 C.ar    1  UNL1        0.0013
      2 C         140.5385  140.6473  163.2271 C.ar    1  UNL1       -0.0002
      3 C         140.9692  141.3933  161.9991 C.ar    1  UNL1       -0.0030
      4 C         140.6041  142.8386  161.8329 C.ar    1  UNL1       -0.0085
      5 C         139.8083  143.5380  162.8947 C.ar    1  UNL1       -0.0246
      6 C         139.3776  142.7921  164.1227 C.ar    1  UNL1       -0.0045
      7 C         139.4432  144.9834  162.7285 C.3     1  UNL1        0.0262
      8 C         139.8738  145.7293  161.5005 C.3     1  UNL1        0.0067
      9 C         140.6697  145.0299  160.4386 C.3     1  UNL1        0.0245
     10 C         141.0348  143.5846  160.6048 C.3     1  UNL1        0.0942
     11 C         141.2878  141.6929  168.7054 C.ar    1  UNL1        0.1670
     12 N         141.0481  141.8471  167.2327 N.ar    1  UNL1       -0.2234
     13 C         139.9633  140.8897  166.8370 C.ar    1  UNL1        0.1168
     14 C         139.3120  140.6008  165.5170 C.ar    1  UNL1        0.0221
     15 C         138.2301  139.5660  165.4250 C.ar    1  UNL1        0.0201
     16 C         137.7993  138.8200  166.6531 C.ar    1  UNL1        0.0736
     17 N         138.4506  139.1089  167.9731 N.ar    1  UNL1       -0.3361
     18 C         139.5326  140.1438  168.0650 C.ar    1  UNL1        0.1600
     19 N         140.3512  140.6403  169.2197 N.ar    1  UNL1       -0.2081
     20 H         138.1679  138.6194  168.7791 H       1  UNL1        0.1674
     21 C         145.8533  143.4833  170.6629 C.3     1  UNL1        0.1538
     22 N         144.3871  143.2801  170.4204 N.ar    1  UNL1       -0.2472
     23 C         143.7805  142.3350  169.4258 C.ar    1  UNL1        0.0997
     24 C         142.2885  142.4572  169.5206 C.ar    1  UNL1        0.0754
     25 C         141.9729  143.4778  170.5736 C.ar    1  UNL1        0.1247
     26 N         143.2698  143.9864  171.1297 N.ar    1  UNL1       -0.1675
     27 N         141.8306  142.8852  159.5430 N.am    1  UNL1       -0.2948
     28 C         143.3206  142.7729  159.6741 C.2     1  UNL1        0.3024
     29 O         144.0149  143.3602  160.8671 O.2     1  UNL1       -0.2649
     30 H         141.3749  142.4997  158.7600 H       1  UNL1        0.1501
     31 C         144.1164  142.0735  158.6123 C.ar    1  UNL1        0.3134
     32 N         145.2183  142.6787  157.7941 N.ar    1  UNL1       -0.1873
     33 C         145.7330  141.6253  156.8583 C.ar    1  UNL1        0.1801
     34 N         144.9491  140.3691  157.0983 N.ar    1  UNL1       -0.0601
     35 O         143.9500  140.6461  158.1823 O.2     1  UNL1       -0.3279
     36 C         146.8376  141.7978  155.8583 C.3     1  UNL1        0.0557
     37 C         147.5377  142.7385  156.7938 C.3     1  UNL1        0.0077
     38 C         146.1375  140.8572  154.9227 C.3     1  UNL1        0.0077
     39 C         147.9421  141.9704  154.8582 C.3     1  UNL1        0.0077
@<TRIPOS>BOND
     1    21    22    1
     2    22    23   ar
     3    23    24   ar
     4    24    11    1
     5    11    12   ar
     6    12    13   ar
     7    13    14   ar
     8    14     1    1
     9     1     2   ar
    10     2     3   ar
    11     3     4   ar
    12     4     5   ar
    13     5     6   ar
    14     5     7    1
    15     7     8    1
    16     8     9    1
    17     9    10    1
    18    10    27    1
    19    27    28   am
    20    28    29    2
    21    28    31    1
    22    31    32   ar
    23    32    33   ar
    24    33    36    1
    25    36    37    1
    26    36    38    1
    27    36    39    1
    28    33    34   ar
    29    34    35   ar
    30    14    15   ar
    31    15    16   ar
    32    16    17   ar
    33    17    18   ar
    34    18    19   ar
    35    24    25   ar
    36    25    26   ar
    37    26    22   ar
    38    19    11   ar
    39    18    13    1
    40     6     1   ar
    41    35    31   ar
    42    10     4    1
    43    27    30    1
    44    17    20    1
@<TRIPOS>MOLECULE
*****
 39 44 0 0 0
SMALL
GASTEIGER

@<TRIPOS>ATOM
      1 C         141.7965  138.3324  158.4667 C.ar    1  UNL1        0.0013
      2 C         142.5145  138.0588  159.7549 C.ar    1  UNL1       -0.0002
      3 C         141.8202  138.2903  161.0642 C.ar    1  UNL1       -0.0030
      4 C         140.4079  138.7954  161.0853 C.ar    1  UNL1       -0.0085
      5 C         139.6900  139.0690  159.7971 C.ar    1  UNL1       -0.0246
      6 C         140.3843  138.8375  158.4877 C.ar    1  UNL1       -0.0045
      7 C         138.2777  139.5741  159.8181 C.3     1  UNL1        0.0262
      8 C         137.5835  139.8055  161.1274 C.3     1  UNL1        0.0067
      9 C         138.3014  139.5319  162.4158 C.3     1  UNL1        0.0245
     10 C         139.7137  139.0268  162.3947 C.3     1  UNL1        0.0942
     11 C         143.7095  134.4130  156.7371 C.ar    1  UNL1        0.1670
     12 N         143.0197  135.4451  157.5791 N.ar    1  UNL1       -0.2234
     13 C         143.0268  136.7404  156.8228 C.ar    1  UNL1        0.1168
     14 C         142.4908  138.1009  157.1573 C.ar    1  UNL1        0.0221
     15 C         142.6491  139.2298  156.1824 C.ar    1  UNL1        0.0201
     16 C         143.3434  138.9984  154.8730 C.ar    1  UNL1        0.0736
     17 N         143.8794  137.6379  154.5386 N.ar    1  UNL1       -0.3361
     18 C         143.7211  136.5089  155.5135 C.ar    1  UNL1        0.1600
     19 N         144.1430  135.0705  155.4606 N.ar    1  UNL1       -0.2081
     20 H         144.3350  137.4859  153.6792 H       1  UNL1        0.1674
     21 C         143.0923  129.1855  157.1538 C.3     1  UNL1        0.1538
     22 N         143.6439  130.5729  157.2984 N.ar    1  UNL1       -0.2472
     23 C         143.0537  131.8218  156.7135 C.ar    1  UNL1        0.0997
     24 C         143.9276  132.9757  157.1069 C.ar    1  UNL1        0.0754
     25 C         145.0579  132.4400  157.9349 C.ar    1  UNL1        0.1247
     26 N         144.8825  130.9550  158.0532 N.ar    1  UNL1       -0.1675
     27 N         140.4316  138.7532  163.6830 N.am    1  UNL1       -0.2948
     28 C         141.1375  139.8662  164.3992 C.2     1  UNL1        0.3024
     29 O         141.1254  141.2528  163.8272 O.2     1  UNL1       -0.2649
     30 H         140.4395  137.8432  164.0584 H       1  UNL1        0.1501
     31 C         141.8555  139.5926  165.6875 C.ar    1  UNL1        0.3134
     32 N         141.6663  140.3349  166.9771 N.ar    1  UNL1       -0.1873
     33 C         142.5826  139.7298  167.9990 C.ar    1  UNL1        0.1801
     34 N         143.3381  138.6134  167.3409 N.ar    1  UNL1       -0.0601
     35 O         142.8887  138.5287  165.9123 O.2     1  UNL1       -0.3279
     36 C         142.7194  140.1646  169.4281 C.3     1  UNL1        0.0557
     37 C         142.4988  138.7512  169.8792 C.3     1  UNL1        0.0077
     38 C         142.9400  141.5780  168.9769 C.3     1  UNL1        0.0077
     39 C         142.8562  140.5994  170.8571 C.3     1  UNL1        0.0077
@<TRIPOS>BOND
     1    21    22    1
     2    22    23   ar
     3    23    24   ar
     4    24    11    1
     5    11    12   ar
     6    12    13   ar
     7    13    14   ar
     8    14     1    1
     9     1     2   ar
    10     2     3   ar
    11     3     4   ar
    12     4     5   ar
    13     5     6   ar
    14     5     7    1
    15     7     8    1
    16     8     9    1
    17     9    10    1
    18    10    27    1
    19    27    28   am
    20    28    29    2
    21    28    31    1
    22    31    32   ar
    23    32    33   ar
    24    33    36    1
    25    36    37    1
    26    36    38    1
    27    36    39    1
    28    33    34   ar
    29    34    35   ar
    30    14    15   ar
    31    15    16   ar
    32    16    17   ar
    33    17    18   ar
    34    18    19   ar
    35    24    25   ar
    36    25    26   ar
    37    26    22   ar
    38    19    11   ar
    39    18    13    1
    40     6     1   ar
    41    35    31   ar
    42    10     4    1
    43    27    30    1
    44    17    20    1
@<TRIPOS>MOLECULE
*****
 39 44 0 0 0
SMALL
GASTEIGER

@<TRIPOS>ATOM
      1 C         140.4175  138.7455  164.6499 C.ar    1  UNL1        0.0013
      2 C         140.1533  137.7575  163.5526 C.ar    1  UNL1       -0.0002
      3 C         141.0517  137.7119  162.3523 C.ar    1  UNL1       -0.0030
      4 C         142.2142  138.6542  162.2493 C.ar    1  UNL1       -0.0085
      5 C         142.4784  139.6421  163.3466 C.ar    1  UNL1       -0.0246
      6 C         141.5800  139.6878  164.5469 C.ar    1  UNL1       -0.0045
      7 C         143.6409  140.5844  163.2436 C.3     1  UNL1        0.0262
      8 C         144.5393  140.5388  162.0433 C.3     1  UNL1        0.0067
      9 C         144.2752  139.5508  160.9460 C.3     1  UNL1        0.0245
     10 C         143.1127  138.6085  161.0489 C.3     1  UNL1        0.0942
     11 C         140.9289  141.0701  168.6931 C.ar    1  UNL1        0.1670
     12 N         141.0915  140.4873  167.3206 N.ar    1  UNL1       -0.2234
     13 C         139.9011  139.6182  167.0419 C.ar    1  UNL1        0.1168
     14 C         139.5190  138.7912  165.8503 C.ar    1  UNL1        0.0221
     15 C         138.2386  138.0099  165.8590 C.ar    1  UNL1        0.0201
     16 C         137.3402  138.0556  167.0593 C.ar    1  UNL1        0.0736
     17 N         137.7223  138.8826  168.2510 N.ar    1  UNL1       -0.3361
     18 C         139.0027  139.6640  168.2423 C.ar    1  UNL1        0.1600
     19 N         139.6380  140.5612  169.2627 N.ar    1  UNL1       -0.2081
     20 H         137.1326  138.9126  169.0388 H       1  UNL1        0.1674
     21 C         145.3940  143.2820  170.4400 C.3     1  UNL1        0.1538
     22 N         143.9411  143.0154  170.1791 N.ar    1  UNL1       -0.2472
     23 C         143.3838  141.8774  169.3762 C.ar    1  UNL1        0.0997
     24 C         141.8887  141.9987  169.3761 C.ar    1  UNL1        0.0754
     25 C         141.5220  143.2115  170.1790 C.ar    1  UNL1        0.1247
     26 N         142.7904  143.8398  170.6752 N.ar    1  UNL1       -0.1675
     27 N         142.8485  137.6205  159.9516 N.am    1  UNL1       -0.2948
     28 C         142.3954  138.0994  158.6042 C.2     1  UNL1        0.3024
     29 O         142.2065  139.5663  158.3542 O.2     1  UNL1       -0.2649
     30 H         142.9726  136.6577  160.1158 H       1  UNL1        0.1501
     31 C         142.1313  137.1114  157.5069 C.ar    1  UNL1        0.3134
     32 N         142.9030  135.8509  157.2509 N.ar    1  UNL1       -0.1873
     33 C         142.2978  135.1709  156.0588 C.ar    1  UNL1        0.1801
     34 N         141.1520  136.0112  155.5779 N.ar    1  UNL1       -0.0601
     35 O         141.0491  137.2105  156.4730 O.2     1  UNL1       -0.3279
     36 C         142.7575  133.8777  155.4536 C.3     1  UNL1        0.0557
     37 C         143.8973  133.8272  156.4276 C.3     1  UNL1        0.0077
     38 C         141.6178  133.9282  154.4797 C.3     1  UNL1        0.0077
     39 C         143.2173  132.5845  154.8485 C.3     1  UNL1        0.0077
@<TRIPOS>BOND
     1    21    22    1
     2    22    23   ar
     3    23    24   ar
     4    24    11    1
     5    11    12   ar
     6    12    13   ar
     7    13    14   ar
     8    14     1    1
     9     1     2   ar
    10     2     3   ar
    11     3     4   ar
    12     4     5   ar
    13     5     6   ar
    14     5     7    1
    15     7     8    1
    16     8     9    1
    17     9    10    1
    18    10    27    1
    19    27    28   am
    20    28    29    2
    21    28    31    1
    22    31    32   ar
    23    32    33   ar
    24    33    36    1
    25    36    37    1
    26    36    38    1
    27    36    39    1
    28    33    34   ar
    29    34    35   ar
    30    14    15   ar
    31    15    16   ar
    32    16    17   ar
    33    17    18   ar
    34    18    19   ar
    35    24    25   ar
    36    25    26   ar
    37    26    22   ar
    38    19    11   ar
    39    18    13    1
    40     6     1   ar
    41    35    31   ar
    42    10     4    1
    43    27    30    1
    44    17    20    1
@<TRIPOS>MOLECULE
*****
 39 44 0 0 0
SMALL
GASTEIGER

@<TRIPOS>ATOM
      1 C         142.3079  139.6012  159.2953 C.ar    1  UNL1        0.0013
      2 C         142.9246  140.0713  160.5793 C.ar    1  UNL1       -0.0002
      3 C         142.0876  140.1739  161.8198 C.ar    1  UNL1       -0.0030
      4 C         140.6340  139.8065  161.7763 C.ar    1  UNL1       -0.0085
      5 C         140.0173  139.3364  160.4923 C.ar    1  UNL1       -0.0246
      6 C         140.8543  139.2337  159.2518 C.ar    1  UNL1       -0.0045
      7 C         138.5637  138.9689  160.4488 C.3     1  UNL1        0.0262
      8 C         137.7267  139.0716  161.6893 C.3     1  UNL1        0.0067
      9 C         138.3434  139.5417  162.9734 C.3     1  UNL1        0.0245
     10 C         139.7970  139.9092  163.0169 C.3     1  UNL1        0.0942
     11 C         143.0418  135.9305  156.4668 C.ar    1  UNL1        0.1670
     12 N         142.5944  136.8605  157.5553 N.ar    1  UNL1       -0.2234
     13 C         143.2248  138.1992  157.3093 C.ar    1  UNL1        0.1168
     14 C         143.1449  139.4985  158.0547 C.ar    1  UNL1        0.0221
     15 C         143.9019  140.6950  157.5595 C.ar    1  UNL1        0.0201
     16 C         144.7389  140.5923  156.3189 C.ar    1  UNL1        0.0736
     17 N         144.8188  139.2930  155.5736 N.ar    1  UNL1       -0.3361
     18 C         144.0617  138.0965  156.0688 C.ar    1  UNL1        0.1600
     19 N         143.9486  136.6943  155.5481 N.ar    1  UNL1       -0.2081
     20 H         145.3681  139.2256  154.7593 H       1  UNL1        0.1674
     21 C         140.7527  131.4971  154.7386 C.3     1  UNL1        0.1538
     22 N         141.5987  132.4517  155.5280 N.ar    1  UNL1       -0.2472
     23 C         141.6920  133.9332  155.3118 C.ar    1  UNL1        0.0997
     24 C         142.6508  134.4895  156.3224 C.ar    1  UNL1        0.0754
     25 C         143.1501  133.3519  157.1630 C.ar    1  UNL1        0.1247
     26 N         142.4999  132.0925  156.6721 N.ar    1  UNL1       -0.1675
     27 N         140.4137  140.3793  164.3009 N.am    1  UNL1       -0.2948
     28 C         140.9862  139.3843  165.2664 C.2     1  UNL1        0.3024
     29 O         140.9421  137.9191  164.9479 O.2     1  UNL1       -0.2649
     30 H         140.4427  141.3409  164.5099 H       1  UNL1        0.1501
     31 C         141.6029  139.8544  166.5504 C.ar    1  UNL1        0.3134
     32 N         141.3490  141.1725  167.2197 N.ar    1  UNL1       -0.1873
     33 C         142.1709  141.2217  168.4734 C.ar    1  UNL1        0.1801
     34 N         142.9329  139.9339  168.5791 N.ar    1  UNL1       -0.0601
     35 O         142.5818  139.0889  167.3905 O.2     1  UNL1       -0.3279
     36 C         142.2220  142.3590  169.4502 C.3     1  UNL1        0.0557
     37 C         140.7751  142.6523  169.1844 C.3     1  UNL1        0.0077
     38 C         143.6689  142.0658  169.7160 C.3     1  UNL1        0.0077
     39 C         142.2731  143.4963  170.4269 C.3     1  UNL1        0.0077
@<TRIPOS>BOND
     1    21    22    1
     2    22    23   ar
     3    23    24   ar
     4    24    11    1
     5    11    12   ar
     6    12    13   ar
     7    13    14   ar
     8    14     1    1
     9     1     2   ar
    10     2     3   ar
    11     3     4   ar
    12     4     5   ar
    13     5     6   ar
    14     5     7    1
    15     7     8    1
    16     8     9    1
    17     9    10    1
    18    10    27    1
    19    27    28   am
    20    28    29    2
    21    28    31    1
    22    31    32   ar
    23    32    33   ar
    24    33    36    1
    25    36    37    1
    26    36    38    1
    27    36    39    1
    28    33    34   ar
    29    34    35   ar
    30    14    15   ar
    31    15    16   ar
    32    16    17   ar
    33    17    18   ar
    34    18    19   ar
    35    24    25   ar
    36    25    26   ar
    37    26    22   ar
    38    19    11   ar
    39    18    13    1
    40     6     1   ar
    41    35    31   ar
    42    10     4    1
    43    27    30    1
    44    17    20    1
@<TRIPOS>MOLECULE
*****
 39 44 0 0 0
SMALL
GASTEIGER

@<TRIPOS>ATOM
      1 C         143.9569  142.2291  158.9863 C.ar    1  UNL1        0.0013
      2 C         143.9315  141.4744  160.2823 C.ar    1  UNL1       -0.0002
      3 C         143.0197  141.9148  161.3888 C.ar    1  UNL1       -0.0030
      4 C         142.1333  143.1100  161.1994 C.ar    1  UNL1       -0.0085
      5 C         142.1588  143.8648  159.9034 C.ar    1  UNL1       -0.0246
      6 C         143.0706  143.4243  158.7968 C.ar    1  UNL1       -0.0045
      7 C         141.2724  145.0600  159.7140 C.3     1  UNL1        0.0262
      8 C         140.3606  145.5004  160.8206 C.3     1  UNL1        0.0067
      9 C         140.3351  144.7457  162.1167 C.3     1  UNL1        0.0245
     10 C         141.2215  143.5505  162.3061 C.3     1  UNL1        0.0942
     11 C         143.7600  138.4007  156.2813 C.ar    1  UNL1        0.1670
     12 N         143.5162  139.4774  157.2967 N.ar    1  UNL1       -0.2234
     13 C         144.5971  140.5070  157.1492 C.ar    1  UNL1        0.1168
     14 C         144.8688  141.7887  157.8796 C.ar    1  UNL1        0.0221
     15 C         146.0523  142.6299  157.5034 C.ar    1  UNL1        0.0201
     16 C         146.9641  142.1895  156.3967 C.ar    1  UNL1        0.0736
     17 N         146.6924  140.9078  155.6663 N.ar    1  UNL1       -0.3361
     18 C         145.5088  140.0666  156.0426 C.ar    1  UNL1        0.1600
     19 N         144.9915  138.7648  155.5062 N.ar    1  UNL1       -0.2081
     20 H         147.2908  140.6187  154.9400 H       1  UNL1        0.1674
     21 C         142.2782  133.3627  155.7299 C.3     1  UNL1        0.1538
     22 N         142.2388  134.8592  155.8234 N.ar    1  UNL1       -0.2472
     23 C         143.4159  135.7595  156.0557 C.ar    1  UNL1        0.0997
     24 C         142.9198  137.1750  156.0768 C.ar    1  UNL1        0.0754
     25 C         141.4362  137.1495  155.8576 C.ar    1  UNL1        0.1247
     26 N         141.0152  135.7184  155.7010 N.ar    1  UNL1       -0.1675
     27 N         141.1960  142.7957  163.6021 N.am    1  UNL1       -0.2948
     28 C         140.1364  141.7627  163.8478 C.2     1  UNL1        0.3024
     29 O         139.1023  141.4846  162.7974 O.2     1  UNL1       -0.2649
     30 H         141.8747  142.9783  164.2915 H       1  UNL1        0.1501
     31 C         140.1109  141.0080  165.1438 C.ar    1  UNL1        0.3134
     32 N         141.2370  140.9113  166.1300 N.ar    1  UNL1       -0.1873
     33 C         140.7770  140.0610  167.2769 C.ar    1  UNL1        0.1801
     34 N         139.3666  139.6321  166.9994 N.ar    1  UNL1       -0.0601
     35 O         138.9550  140.2174  165.6811 O.2     1  UNL1       -0.3279
     36 C         141.5854  139.7024  168.4885 C.3     1  UNL1        0.0557
     37 C         140.4338  140.0854  169.3701 C.3     1  UNL1        0.0077
     38 C         142.7369  139.3195  167.6068 C.3     1  UNL1        0.0077
     39 C         142.3938  139.3439  169.7001 C.3     1  UNL1        0.0077
@<TRIPOS>BOND
     1    21    22    1
     2    22    23   ar
     3    23    24   ar
     4    24    11    1
     5    11    12   ar
     6    12    13   ar
     7    13    14   ar
     8    14     1    1
     9     1     2   ar
    10     2     3   ar
    11     3     4   ar
    12     4     5   ar
    13     5     6   ar
    14     5     7    1
    15     7     8    1
    16     8     9    1
    17     9    10    1
    18    10    27    1
    19    27    28   am
    20    28    29    2
    21    28    31    1
    22    31    32   ar
    23    32    33   ar
    24    33    36    1
    25    36    37    1
    26    36    38    1
    27    36    39    1
    28    33    34   ar
    29    34    35   ar
    30    14    15   ar
    31    15    16   ar
    32    16    17   ar
    33    17    18   ar
    34    18    19   ar
    35    24    25   ar
    36    25    26   ar
    37    26    22   ar
    38    19    11   ar
    39    18    13    1
    40     6     1   ar
    41    35    31   ar
    42    10     4    1
    43    27    30    1
    44    17    20    1
@<TRIPOS>MOLECULE
*****
 39 44 0 0 0
SMALL
GASTEIGER

@<TRIPOS>ATOM
      1 C         138.5747  142.9809  156.0185 C.ar    1  UNL1        0.0013
      2 C         137.0962  143.2108  156.1234 C.ar    1  UNL1       -0.0002
      3 C         136.1388  142.1212  155.7411 C.ar    1  UNL1       -0.0030
      4 C         136.6599  140.8017  155.2539 C.ar    1  UNL1       -0.0085
      5 C         138.1384  140.5718  155.1489 C.ar    1  UNL1       -0.0246
      6 C         139.0958  141.6614  155.5312 C.ar    1  UNL1       -0.0045
      7 C         138.6595  139.2523  154.6617 C.3     1  UNL1        0.0262
      8 C         137.7022  138.1628  154.2794 C.3     1  UNL1        0.0067
      9 C         136.2235  138.3927  154.3843 C.3     1  UNL1        0.0245
     10 C         135.7024  139.7121  154.8716 C.3     1  UNL1        0.0942
     11 C         139.9717  144.3918  160.2694 C.ar    1  UNL1        0.1670
     12 N         139.3237  143.6981  159.1080 N.ar    1  UNL1       -0.2234
     13 C         139.8244  144.3386  157.8474 C.ar    1  UNL1        0.1168
     14 C         139.5322  144.0705  156.4008 C.ar    1  UNL1        0.0221
     15 C         140.1974  144.8919  155.3365 C.ar    1  UNL1        0.0201
     16 C         141.1549  145.9815  155.7188 C.ar    1  UNL1        0.0736
     17 N         141.4471  146.2496  157.1654 N.ar    1  UNL1       -0.3361
     18 C         140.7818  145.4281  158.2297 C.ar    1  UNL1        0.1600
     19 N         140.8728  145.4610  159.7266 N.ar    1  UNL1       -0.2081
     20 H         142.0755  146.9647  157.4163 H       1  UNL1        0.1674
     21 C         138.6350  144.8148  165.3601 C.3     1  UNL1        0.1538
     22 N         139.1419  144.2668  164.0591 N.ar    1  UNL1       -0.2472
     23 C         139.1718  144.9946  162.7476 C.ar    1  UNL1        0.0997
     24 C         139.7564  144.0724  161.7191 C.ar    1  UNL1        0.0754
     25 C         140.0878  142.7748  162.3947 C.ar    1  UNL1        0.1247
     26 N         139.7080  142.8950  163.8409 N.ar    1  UNL1       -0.1675
     27 N         134.2239  139.9421  154.9765 N.am    1  UNL1       -0.2948
     28 C         133.5443  139.8561  156.3110 C.2     1  UNL1        0.3024
     29 O         134.3433  139.5402  157.5406 O.2     1  UNL1       -0.2649
     30 H         133.6995  140.1494  154.1695 H       1  UNL1        0.1501
     31 C         132.0658  140.0860  156.4160 C.ar    1  UNL1        0.3134
     32 N         131.1224  139.3562  157.3256 N.ar    1  UNL1       -0.1873
     33 C         129.7446  139.9052  157.1015 C.ar    1  UNL1        0.1801
     34 N         129.8364  140.9744  156.0534 N.ar    1  UNL1       -0.0601
     35 O         131.2710  141.0861  155.6297 O.2     1  UNL1       -0.3279
     36 C         128.4944  139.4628  157.8025 C.3     1  UNL1        0.0557
     37 C         127.6769  140.3305  156.8921 C.3     1  UNL1        0.0077
     38 C         129.3120  138.5951  158.7129 C.3     1  UNL1        0.0077
     39 C         127.2443  139.0204  158.5035 C.3     1  UNL1        0.0077
@<TRIPOS>BOND
     1    21    22    1
     2    22    23   ar
     3    23    24   ar
     4    24    11    1
     5    11    12   ar
     6    12    13   ar
     7    13    14   ar
     8    14     1    1
     9     1     2   ar
    10     2     3   ar
    11     3     4   ar
    12     4     5   ar
    13     5     6   ar
    14     5     7    1
    15     7     8    1
    16     8     9    1
    17     9    10    1
    18    10    27    1
    19    27    28   am
    20    28    29    2
    21    28    31    1
    22    31    32   ar
    23    32    33   ar
    24    33    36    1
    25    36    37    1
    26    36    38    1
    27    36    39    1
    28    33    34   ar
    29    34    35   ar
    30    14    15   ar
    31    15    16   ar
    32    16    17   ar
    33    17    18   ar
    34    18    19   ar
    35    24    25   ar
    36    25    26   ar
    37    26    22   ar
    38    19    11   ar
    39    18    13    1
    40     6     1   ar
    41    35    31   ar
    42    10     4    1
    43    27    30    1
    44    17    20    1
@<TRIPOS>MOLECULE
*****
 39 44 0 0 0
SMALL
GASTEIGER

@<TRIPOS>ATOM
      1 C         138.7628  140.6837  157.2074 C.ar    1  UNL1        0.0013
      2 C         138.4539  141.1251  158.6073 C.ar    1  UNL1       -0.0002
      3 C         139.2587  140.5936  159.7561 C.ar    1  UNL1       -0.0030
      4 C         140.3725  139.6208  159.5050 C.ar    1  UNL1       -0.0085
      5 C         140.6814  139.1794  158.1051 C.ar    1  UNL1       -0.0246
      6 C         139.8766  139.7108  156.9563 C.ar    1  UNL1       -0.0045
      7 C         141.7952  138.2065  157.8541 C.3     1  UNL1        0.0262
      8 C         142.6000  137.6751  159.0029 C.3     1  UNL1        0.0067
      9 C         142.2911  138.1165  160.4028 C.3     1  UNL1        0.0245
     10 C         141.1773  139.0893  160.6539 C.3     1  UNL1        0.0942
     11 C         134.1612  140.3447  156.3573 C.ar    1  UNL1        0.1670
     12 N         135.5436  140.2574  156.9329 N.ar    1  UNL1       -0.2234
     13 C         136.4781  140.9760  156.0054 C.ar    1  UNL1        0.1168
     14 C         137.9580  141.2151  156.0585 C.ar    1  UNL1        0.0221
     15 C         138.6330  141.9856  154.9628 C.ar    1  UNL1        0.0201
     16 C         137.8281  142.5171  153.8139 C.ar    1  UNL1        0.0736
     17 N         136.3483  142.2780  153.7608 N.ar    1  UNL1       -0.3361
     18 C         135.6732  141.5074  154.8566 C.ar    1  UNL1        0.1600
     19 N         134.2413  141.1172  155.0741 N.ar    1  UNL1       -0.2081
     20 H         135.8200  142.6267  153.0068 H       1  UNL1        0.1674
     21 C         129.0886  139.4429  157.5138 C.3     1  UNL1        0.1538
     22 N         130.5854  139.3473  157.4908 N.ar    1  UNL1       -0.2472
     23 C         131.5110  140.1999  156.6744 C.ar    1  UNL1        0.0997
     24 C         132.9170  139.7617  156.9593 C.ar    1  UNL1        0.0754
     25 C         132.8604  138.6384  157.9517 C.ar    1  UNL1        0.1247
     26 N         131.4195  138.3822  158.2802 N.ar    1  UNL1       -0.1675
     27 N         140.8684  139.5308  162.0537 N.am    1  UNL1       -0.2948
     28 C         139.8340  138.8016  162.8590 C.2     1  UNL1        0.3024
     29 O         139.1085  137.6311  162.2644 O.2     1  UNL1       -0.2649
     30 H         141.3445  140.2990  162.4440 H       1  UNL1        0.1501
     31 C         139.5250  139.2430  164.2589 C.ar    1  UNL1        0.3134
     32 N         140.2740  140.2804  165.0418 N.ar    1  UNL1       -0.1873
     33 C         139.6247  140.4031  166.3884 C.ar    1  UNL1        0.1801
     34 N         138.4744  139.4415  166.4378 N.ar    1  UNL1       -0.0601
     35 O         138.4128  138.7246  165.1217 O.2     1  UNL1       -0.3279
     36 C         140.0509  141.3254  167.4919 C.3     1  UNL1        0.0557
     37 C         140.3503  142.3942  166.4830 C.3     1  UNL1        0.0077
     38 C         139.7515  140.2565  168.5009 C.3     1  UNL1        0.0077
     39 C         140.4770  142.2477  168.5955 C.3     1  UNL1        0.0077
@<TRIPOS>BOND
     1    21    22    1
     2    22    23   ar
     3    23    24   ar
     4    24    11    1
     5    11    12   ar
     6    12    13   ar
     7    13    14   ar
     8    14     1    1
     9     1     2   ar
    10     2     3   ar
    11     3     4   ar
    12     4     5   ar
    13     5     6   ar
    14     5     7    1
    15     7     8    1
    16     8     9    1
    17     9    10    1
    18    10    27    1
    19    27    28   am
    20    28    29    2
    21    28    31    1
    22    31    32   ar
    23    32    33   ar
    24    33    36    1
    25    36    37    1
    26    36    38    1
    27    36    39    1
    28    33    34   ar
    29    34    35   ar
    30    14    15   ar
    31    15    16   ar
    32    16    17   ar
    33    17    18   ar
    34    18    19   ar
    35    24    25   ar
    36    25    26   ar
    37    26    22   ar
    38    19    11   ar
    39    18    13    1
    40     6     1   ar
    41    35    31   ar
    42    10     4    1
    43    27    30    1
    44    17    20    1
@<TRIPOS>MOLECULE
*****
 39 44 0 0 0
SMALL
GASTEIGER

@<TRIPOS>ATOM
      1 C         139.9722  142.2300  165.2967 C.ar    1  UNL1        0.0013
      2 C         141.2750  142.8526  165.7031 C.ar    1  UNL1       -0.0002
      3 C         141.8917  142.5056  167.0256 C.ar    1  UNL1       -0.0030
      4 C         141.2057  141.5360  167.9417 C.ar    1  UNL1       -0.0085
      5 C         139.9030  140.9134  167.5353 C.ar    1  UNL1       -0.0246
      6 C         139.2863  141.2603  166.2128 C.ar    1  UNL1       -0.0045
      7 C         139.2171  139.9438  168.4515 C.3     1  UNL1        0.0262
      8 C         139.8338  139.5968  169.7740 C.3     1  UNL1        0.0067
      9 C         141.1366  140.2194  170.1805 C.3     1  UNL1        0.0245
     10 C         141.8226  141.1891  169.2644 C.3     1  UNL1        0.0942
     11 C         140.8394  140.4799  161.0307 C.ar    1  UNL1        0.1670
     12 N         140.8249  140.7966  162.4968 N.ar    1  UNL1       -0.2234
     13 C         139.8035  141.8703  162.7291 C.ar    1  UNL1        0.1168
     14 C         139.3554  142.5769  163.9740 C.ar    1  UNL1        0.0221
     15 C         138.2906  143.6305  163.8964 C.ar    1  UNL1        0.0201
     16 C         137.6737  143.9774  162.5738 C.ar    1  UNL1        0.0736
     17 N         138.1218  143.2708  161.3289 N.ar    1  UNL1       -0.3361
     18 C         139.1868  142.2172  161.4065 C.ar    1  UNL1        0.1600
     19 N         139.8270  141.3579  160.3569 N.ar    1  UNL1       -0.2081
     20 H         137.7170  143.4985  160.4608 H       1  UNL1        0.1674
     21 C         142.6747  136.9424  157.5668 C.3     1  UNL1        0.1538
     22 N         142.5565  137.8376  158.7645 N.ar    1  UNL1       -0.2472
     23 C         141.4163  138.7658  159.0625 C.ar    1  UNL1        0.0997
     24 C         141.7129  139.4637  160.3567 C.ar    1  UNL1        0.0754
     25 C         143.0363  138.9670  160.8586 C.ar    1  UNL1        0.1247
     26 N         143.5577  137.9621  159.8746 N.ar    1  UNL1       -0.1675
     27 N         143.1253  141.8117  169.6708 N.am    1  UNL1       -0.2948
     28 C         143.1402  143.1646  170.3185 C.2     1  UNL1        0.3024
     29 O         141.8523  143.8948  170.5598 O.2     1  UNL1       -0.2649
     30 H         143.9705  141.3324  169.5124 H       1  UNL1        0.1501
     31 C         144.4429  143.7873  170.7249 C.ar    1  UNL1        0.3134
     32 N         144.6150  144.9166  171.6970 N.ar    1  UNL1       -0.1873
     33 C         146.0807  145.2172  171.8035 C.ar    1  UNL1        0.1801
     34 N         146.8145  144.2736  170.8972 N.ar    1  UNL1       -0.0601
     35 O         145.8022  143.3899  170.2307 O.2     1  UNL1       -0.3279
     36 C         146.7033  146.2756  172.6650 C.3     1  UNL1        0.0557
     37 C         146.0832  147.3386  171.8073 C.3     1  UNL1        0.0077
     38 C         147.3235  145.2127  173.5226 C.3     1  UNL1        0.0077
     39 C         147.3260  147.3340  173.5264 C.3     1  UNL1        0.0077
@<TRIPOS>BOND
     1    21    22    1
     2    22    23   ar
     3    23    24   ar
     4    24    11    1
     5    11    12   ar
     6    12    13   ar
     7    13    14   ar
     8    14     1    1
     9     1     2   ar
    10     2     3   ar
    11     3     4   ar
    12     4     5   ar
    13     5     6   ar
    14     5     7    1
    15     7     8    1
    16     8     9    1
    17     9    10    1
    18    10    27    1
    19    27    28   am
    20    28    29    2
    21    28    31    1
    22    31    32   ar
    23    32    33   ar
    24    33    36    1
    25    36    37    1
    26    36    38    1
    27    36    39    1
    28    33    34   ar
    29    34    35   ar
    30    14    15   ar
    31    15    16   ar
    32    16    17   ar
    33    17    18   ar
    34    18    19   ar
    35    24    25   ar
    36    25    26   ar
    37    26    22   ar
    38    19    11   ar
    39    18    13    1
    40     6     1   ar
    41    35    31   ar
    42    10     4    1
    43    27    30    1
    44    17    20    1
@<TRIPOS>MOLECULE
*****
 39 44 0 0 0
SMALL
GASTEIGER

@<TRIPOS>ATOM
      1 C         141.4055  141.3658  166.7865 C.ar    1  UNL1        0.0013
      2 C         140.6484  142.1827  165.7819 C.ar    1  UNL1       -0.0002
      3 C         141.0778  142.1901  164.3447 C.ar    1  UNL1       -0.0030
      4 C         142.2643  141.3807  163.9122 C.ar    1  UNL1       -0.0085
      5 C         143.0214  140.5639  164.9168 C.ar    1  UNL1       -0.0246
      6 C         142.5921  140.5564  166.3540 C.ar    1  UNL1       -0.0045
      7 C         144.2079  139.7545  164.4843 C.3     1  UNL1        0.0262
      8 C         144.6373  139.7619  163.0472 C.3     1  UNL1        0.0067
      9 C         143.8801  140.5788  162.0424 C.3     1  UNL1        0.0245
     10 C         142.6936  141.3882  162.4749 C.3     1  UNL1        0.0942
     11 C         143.5052  143.2117  170.5544 C.ar    1  UNL1        0.1670
     12 N         143.1295  142.7629  169.1733 N.ar    1  UNL1       -0.2234
     13 C         141.8269  142.0247  169.2641 C.ar    1  UNL1        0.1168
     14 C         140.9762  141.3583  168.2238 C.ar    1  UNL1        0.0221
     15 C         139.6962  140.6845  168.6207 C.ar    1  UNL1        0.0201
     16 C         139.2669  140.6770  170.0580 C.ar    1  UNL1        0.0736
     17 N         140.1175  141.3434  171.0983 N.ar    1  UNL1       -0.3361
     18 C         141.3976  142.0172  170.7013 C.ar    1  UNL1        0.1600
     19 N         142.4349  142.7509  171.4987 N.ar    1  UNL1       -0.2081
     20 H         139.8358  141.3385  172.0416 H       1  UNL1        0.1674
     21 C         146.7147  146.8143  172.6996 C.3     1  UNL1        0.1538
     22 N         146.2106  145.6415  171.9120 N.ar    1  UNL1       -0.2472
     23 C         144.7824  145.1930  171.8147 C.ar    1  UNL1        0.0997
     24 C         144.7354  143.9855  170.9259 C.ar    1  UNL1        0.0754
     25 C         146.1343  143.6877  170.4739 C.ar    1  UNL1        0.1247
     26 N         147.0460  144.7111  171.0833 N.ar    1  UNL1       -0.1675
     27 N         141.9365  142.2051  161.4702 N.am    1  UNL1       -0.2948
     28 C         142.3868  143.5982  161.1438 C.2     1  UNL1        0.3024
     29 O         143.5942  144.1744  161.8221 O.2     1  UNL1       -0.2649
     30 H         141.1440  141.8269  161.0250 H       1  UNL1        0.1501
     31 C         141.6296  144.4151  160.1391 C.ar    1  UNL1        0.3134
     32 N         142.0136  144.6254  158.7044 N.ar    1  UNL1       -0.1873
     33 C         140.9769  145.5054  158.0713 C.ar    1  UNL1        0.1801
     34 N         139.9521  145.8389  159.1147 N.ar    1  UNL1       -0.0601
     35 O         140.3555  145.1651  160.3927 O.2     1  UNL1       -0.3279
     36 C         140.9667  145.9702  156.6452 C.3     1  UNL1        0.0557
     37 C         139.6713  146.6865  156.8879 C.3     1  UNL1        0.0077
     38 C         142.2621  145.2539  156.4024 C.3     1  UNL1        0.0077
     39 C         140.9565  146.4350  155.2191 C.3     1  UNL1        0.0077
@<TRIPOS>BOND
     1    21    22    1
     2    22    23   ar
     3    23    24   ar
     4    24    11    1
     5    11    12   ar
     6    12    13   ar
     7    13    14   ar
     8    14     1    1
     9     1     2   ar
    10     2     3   ar
    11     3     4   ar
    12     4     5   ar
    13     5     6   ar
    14     5     7    1
    15     7     8    1
    16     8     9    1
    17     9    10    1
    18    10    27    1
    19    27    28   am
    20    28    29    2
    21    28    31    1
    22    31    32   ar
    23    32    33   ar
    24    33    36    1
    25    36    37    1
    26    36    38    1
    27    36    39    1
    28    33    34   ar
    29    34    35   ar
    30    14    15   ar
    31    15    16   ar
    32    16    17   ar
    33    17    18   ar
    34    18    19   ar
    35    24    25   ar
    36    25    26   ar
    37    26    22   ar
    38    19    11   ar
    39    18    13    1
    40     6     1   ar
    41    35    31   ar
    42    10     4    1
    43    27    30    1
    44    17    20    1
