@<TRIPOS>MOLECULE
*****
 34 38 0 0 0
SMALL
GASTEIGER

@<TRIPOS>ATOM
      1 C         142.7303  138.9616  159.4246 C.ar    1  UNL1        0.1655
      2 N         141.7341  139.4141  160.4506 N.ar    1  UNL1       -0.2219
      3 C         142.4180  139.4294  161.7855 C.ar    1  UNL1        0.1344
      4 C         141.9321  139.7895  163.1582 C.ar    1  UNL1        0.1049
      5 C         142.8649  139.7066  164.3298 C.ar    1  UNL1        0.0392
      6 C         144.2839  139.2636  164.1288 C.ar    1  UNL1        0.0751
      7 N         144.7699  138.9035  162.7561 N.ar    1  UNL1       -0.3361
      8 C         143.8369  138.9864  161.5845 C.ar    1  UNL1        0.1615
      9 N         144.0299  138.6973  160.1253 N.ar    1  UNL1       -0.2081
     10 H         145.7011  138.6127  162.6241 H       1  UNL1        0.1675
     11 C         142.9875  135.0352  156.5552 C.ar    1  UNL1        0.1346
     12 C         142.9600  136.1312  157.5789 C.ar    1  UNL1        0.0253
     13 C         142.5857  137.5262  157.1742 C.ar    1  UNL1        0.0234
     14 C         142.4722  138.8016  157.9556 C.ar    1  UNL1        0.0545
     15 C         142.0552  139.8889  157.0101 C.ar    1  UNL1        0.0790
     16 N         141.9110  139.2854  155.6444 N.ar    1  UNL1       -0.3227
     17 C         141.5095  140.0142  154.3964 C.3     1  UNL1        0.1305
     18 C         142.2389  137.8252  155.7459 C.ar    1  UNL1        0.0795
     19 C         142.2664  136.7292  154.7222 C.ar    1  UNL1        0.1161
     20 N         142.6408  135.3342  155.1269 N.ar    1  UNL1       -0.2377
     21 C         145.1046  131.9644  157.9112 C.3     1  UNL1        0.1110
     22 N         144.7302  133.3594  157.5066 N.am    1  UNL1       -0.2979
     23 C         143.3619  133.6401  156.9599 C.2     1  UNL1        0.2636
     24 O         142.3679  132.5258  156.8180 O.2     1  UNL1       -0.2685
     25 H         145.3826  134.0908  157.5997 H       1  UNL1        0.1498
     26 N         140.5131  140.2325  163.3592 N.ar    1  UNL1       -0.2268
     27 C         140.0673  141.6063  163.7641 C.ar    1  UNL1        0.0991
     28 C         138.5695  141.6023  163.8458 C.ar    1  UNL1        0.0339
     29 C         138.0897  140.2260  163.4914 C.ar    1  UNL1        0.1191
     30 N         139.2908  139.3794  163.1907 N.ar    1  UNL1       -0.1637
     31 C         137.7036  142.7696  164.2167 C.3     1  UNL1        0.1024
     32 N         138.2614  144.1613  164.1723 N.3     1  UNL1       -0.2664
     33 C         138.5619  144.8900  165.4485 C.3     1  UNL1        0.0899
     34 C         138.5188  144.8242  162.8516 C.3     1  UNL1        0.0899
@<TRIPOS>BOND
     1    21    22    1
     2    22    23   am
     3    23    24    2
     4    23    11    1
     5    11    12   ar
     6    12    13   ar
     7    13    14   ar
     8    14     1    1
     9     1     2   ar
    10     2     3   ar
    11     3     4   ar
    12     4    26    1
    13    26    27   ar
    14    27    28   ar
    15    28    31    1
    16    31    32    1
    17    32    33    1
    18    32    34    1
    19    28    29   ar
    20    29    30   ar
    21     4     5   ar
    22     5     6   ar
    23     6     7   ar
    24     7     8   ar
    25     8     9   ar
    26    14    15   ar
    27    15    16   ar
    28    16    17    1
    29    16    18   ar
    30    18    19   ar
    31    19    20   ar
    32    20    11   ar
    33    18    13   ar
    34     9     1   ar
    35     8     3    1
    36    30    26   ar
    37    22    25    1
    38     7    10    1
@<TRIPOS>MOLECULE
*****
 34 38 0 0 0
SMALL
GASTEIGER

@<TRIPOS>ATOM
      1 C         141.8092  138.5790  159.9965 C.ar    1  UNL1        0.1655
      2 N         140.9746  139.5658  160.7579 N.ar    1  UNL1       -0.2219
      3 C         140.7218  139.0020  162.1247 C.ar    1  UNL1        0.1344
      4 C         139.9616  139.5319  163.3042 C.ar    1  UNL1        0.1049
      5 C         139.8796  138.7266  164.5669 C.ar    1  UNL1        0.0392
      6 C         140.5579  137.3913  164.6504 C.ar    1  UNL1        0.0751
      7 N         141.3182  136.8614  163.4709 N.ar    1  UNL1       -0.3361
      8 C         141.4001  137.6667  162.2080 C.ar    1  UNL1        0.1615
      9 N         142.0722  137.4053  160.8927 N.ar    1  UNL1       -0.2081
     10 H         141.7634  135.9850  163.5255 H       1  UNL1        0.1675
     11 C         143.3974  135.2809  156.7846 C.ar    1  UNL1        0.1346
     12 C         142.8846  136.1532  157.8919 C.ar    1  UNL1        0.0253
     13 C         142.7644  137.6340  157.6857 C.ar    1  UNL1        0.0234
     14 C         142.2954  138.7381  158.5865 C.ar    1  UNL1        0.0545
     15 C         142.3982  140.0290  157.8295 C.ar    1  UNL1        0.0790
     16 N         142.9305  139.7228  156.4610 N.ar    1  UNL1       -0.3227
     17 C         143.1909  140.7215  155.3725 C.3     1  UNL1        0.1305
     18 C         143.1568  138.2427  156.3721 C.ar    1  UNL1        0.0795
     19 C         143.6696  137.3704  155.2648 C.ar    1  UNL1        0.1161
     20 N         143.7899  135.8895  155.4710 N.ar    1  UNL1       -0.2377
     21 C         144.9239  131.7340  157.7007 C.3     1  UNL1        0.1110
     22 N         144.8037  133.2149  157.4945 N.am    1  UNL1       -0.2979
     23 C         143.5176  133.8000  156.9908 C.2     1  UNL1        0.2636
     24 O         142.3519  132.9042  156.6934 O.2     1  UNL1       -0.2685
     25 H         145.5688  133.8028  157.6897 H       1  UNL1        0.1498
     26 N         139.2832  140.8672  163.2208 N.ar    1  UNL1       -0.2268
     27 C         139.8817  142.1861  163.6111 C.ar    1  UNL1        0.0991
     28 C         138.8556  143.2520  163.3641 C.ar    1  UNL1        0.0339
     29 C         137.6230  142.5918  162.8211 C.ar    1  UNL1        0.1191
     30 N         137.8872  141.1180  162.7326 N.ar    1  UNL1       -0.1637
     31 C         139.0313  144.7202  163.6158 C.3     1  UNL1        0.1024
     32 N         140.0936  145.4850  162.8832 N.3     1  UNL1       -0.2664
     33 C         141.5144  145.4413  163.3620 C.3     1  UNL1        0.0899
     34 C         139.7349  146.2934  161.6716 C.3     1  UNL1        0.0899
@<TRIPOS>BOND
     1    21    22    1
     2    22    23   am
     3    23    24    2
     4    23    11    1
     5    11    12   ar
     6    12    13   ar
     7    13    14   ar
     8    14     1    1
     9     1     2   ar
    10     2     3   ar
    11     3     4   ar
    12     4    26    1
    13    26    27   ar
    14    27    28   ar
    15    28    31    1
    16    31    32    1
    17    32    33    1
    18    32    34    1
    19    28    29   ar
    20    29    30   ar
    21     4     5   ar
    22     5     6   ar
    23     6     7   ar
    24     7     8   ar
    25     8     9   ar
    26    14    15   ar
    27    15    16   ar
    28    16    17    1
    29    16    18   ar
    30    18    19   ar
    31    19    20   ar
    32    20    11   ar
    33    18    13   ar
    34     9     1   ar
    35     8     3    1
    36    30    26   ar
    37    22    25    1
    38     7    10    1
@<TRIPOS>MOLECULE
*****
 34 38 0 0 0
SMALL
GASTEIGER

@<TRIPOS>ATOM
      1 C         140.8249  143.9213  159.2796 C.ar    1  UNL1        0.1655
      2 N         140.2602  143.1149  160.4114 N.ar    1  UNL1       -0.2219
      3 C         140.9618  143.5290  161.6708 C.ar    1  UNL1        0.1344
      4 C         140.8207  143.0760  163.0938 C.ar    1  UNL1        0.1049
      5 C         141.6777  143.6853  164.1634 C.ar    1  UNL1        0.0392
      6 C         142.6760  144.7477  163.8101 C.ar    1  UNL1        0.0751
      7 N         142.8172  145.2007  162.3871 N.ar    1  UNL1       -0.3361
      8 C         141.9601  144.5914  161.3175 C.ar    1  UNL1        0.1615
      9 N         141.8754  144.8338  159.8397 N.ar    1  UNL1       -0.2081
     10 H         143.4723  145.8980  162.1552 H       1  UNL1        0.1675
     11 C         139.0886  147.3127  156.2464 C.ar    1  UNL1        0.1346
     12 C         139.6297  146.4037  157.3098 C.ar    1  UNL1        0.0253
     13 C         139.8857  144.9581  157.0019 C.ar    1  UNL1        0.0234
     14 C         140.4115  143.8311  157.8406 C.ar    1  UNL1        0.0545
     15 C         140.4514  142.5980  156.9874 C.ar    1  UNL1        0.0790
     16 N         139.9502  142.9629  155.6215 N.ar    1  UNL1       -0.3227
     17 C         139.8213  142.0325  154.4520 C.3     1  UNL1        0.1305
     18 C         139.6006  144.4216  155.6305 C.ar    1  UNL1        0.0795
     19 C         139.0595  145.3305  154.5670 C.ar    1  UNL1        0.1161
     20 N         138.8035  146.7761  154.8750 N.ar    1  UNL1       -0.2377
     21 C         138.9815  151.2629  155.8805 C.3     1  UNL1        0.1110
     22 N         139.2375  149.8174  155.5725 N.am    1  UNL1       -0.2979
     23 C         138.8326  148.7582  156.5544 C.2     1  UNL1        0.2636
     24 O         138.1716  149.1446  157.8442 O.2     1  UNL1       -0.2685
     25 H         139.6714  149.5638  154.7259 H       1  UNL1        0.1498
     26 N         139.8224  142.0136  163.4471 N.ar    1  UNL1       -0.2268
     27 C         140.0687  140.8346  164.3412 C.ar    1  UNL1        0.0991
     28 C         138.8011  140.0360  164.4151 C.ar    1  UNL1        0.0339
     29 C         137.7714  140.7215  163.5667 C.ar    1  UNL1        0.1191
     30 N         138.4025  141.9436  162.9684 N.ar    1  UNL1       -0.1637
     31 C         138.5987  138.7737  165.1996 C.3     1  UNL1        0.1024
     32 N         138.3832  138.8387  166.6826 N.3     1  UNL1       -0.2664
     33 C         139.2726  139.6965  167.5329 C.3     1  UNL1        0.0899
     34 C         137.2782  138.0457  167.3153 C.3     1  UNL1        0.0899
@<TRIPOS>BOND
     1    21    22    1
     2    22    23   am
     3    23    24    2
     4    23    11    1
     5    11    12   ar
     6    12    13   ar
     7    13    14   ar
     8    14     1    1
     9     1     2   ar
    10     2     3   ar
    11     3     4   ar
    12     4    26    1
    13    26    27   ar
    14    27    28   ar
    15    28    31    1
    16    31    32    1
    17    32    33    1
    18    32    34    1
    19    28    29   ar
    20    29    30   ar
    21     4     5   ar
    22     5     6   ar
    23     6     7   ar
    24     7     8   ar
    25     8     9   ar
    26    14    15   ar
    27    15    16   ar
    28    16    17    1
    29    16    18   ar
    30    18    19   ar
    31    19    20   ar
    32    20    11   ar
    33    18    13   ar
    34     9     1   ar
    35     8     3    1
    36    30    26   ar
    37    22    25    1
    38     7    10    1
@<TRIPOS>MOLECULE
*****
 34 38 0 0 0
SMALL
GASTEIGER

@<TRIPOS>ATOM
      1 C         140.4444  144.3924  160.6813 C.ar    1  UNL1        0.1655
      2 N         139.5873  144.0209  159.5077 N.ar    1  UNL1       -0.2219
      3 C         140.2940  144.4610  158.2600 C.ar    1  UNL1        0.1344
      4 C         139.9265  144.3590  156.8092 C.ar    1  UNL1        0.1049
      5 C         140.8528  144.9003  155.7610 C.ar    1  UNL1        0.0392
      6 C         142.1467  145.5439  156.1635 C.ar    1  UNL1        0.0751
      7 N         142.5141  145.6459  157.6142 N.ar    1  UNL1       -0.3361
      8 C         141.5878  145.1045  158.6624 C.ar    1  UNL1        0.1615
      9 N         141.6807  145.0621  160.1589 N.ar    1  UNL1       -0.2081
     10 H         143.3633  146.0682  157.8783 H       1  UNL1        0.1675
     11 C         141.5928  140.6615  163.5930 C.ar    1  UNL1        0.1346
     12 C         141.3331  141.7197  162.5621 C.ar    1  UNL1        0.0253
     13 C         140.5359  142.9382  162.9223 C.ar    1  UNL1        0.0234
     14 C         140.1217  144.1387  162.1241 C.ar    1  UNL1        0.0545
     15 C         139.3282  145.0410  163.0219 C.ar    1  UNL1        0.0790
     16 N         139.2520  144.3981  164.3750 N.ar    1  UNL1       -0.3227
     17 C         138.5522  144.9567  165.5784 C.3     1  UNL1        0.1305
     18 C         139.9984  143.0985  164.3135 C.ar    1  UNL1        0.0795
     19 C         140.2580  142.0403  165.3444 C.ar    1  UNL1        0.1161
     20 N         141.0553  140.8218  164.9841 N.ar    1  UNL1       -0.2377
     21 C         143.7971  138.1039  161.5075 C.3     1  UNL1        0.1110
     22 N         142.9999  139.3224  161.8678 N.am    1  UNL1       -0.2979
     23 C         142.3900  139.4430  163.2328 C.2     1  UNL1        0.2636
     24 O         142.5773  138.3452  164.2376 O.2     1  UNL1       -0.2685
     25 H         142.8770  140.0429  161.2082 H       1  UNL1        0.1498
     26 N         138.6327  143.7155  156.4067 N.ar    1  UNL1       -0.2268
     27 C         138.1315  142.3792  156.8683 C.ar    1  UNL1        0.0991
     28 C         136.8019  142.1332  156.2188 C.ar    1  UNL1        0.0339
     29 C         136.4815  143.3175  155.3559 C.ar    1  UNL1        0.1191
     30 N         137.6129  144.2954  155.4720 N.ar    1  UNL1       -0.1637
     31 C         135.9436  140.9165  156.4004 C.3     1  UNL1        0.1024
     32 N         134.8767  140.5946  155.3964 N.3     1  UNL1       -0.2664
     33 C         135.2491  139.9983  154.0714 C.3     1  UNL1        0.0899
     34 C         133.4374  140.8690  155.7174 C.3     1  UNL1        0.0899
@<TRIPOS>BOND
     1    21    22    1
     2    22    23   am
     3    23    24    2
     4    23    11    1
     5    11    12   ar
     6    12    13   ar
     7    13    14   ar
     8    14     1    1
     9     1     2   ar
    10     2     3   ar
    11     3     4   ar
    12     4    26    1
    13    26    27   ar
    14    27    28   ar
    15    28    31    1
    16    31    32    1
    17    32    33    1
    18    32    34    1
    19    28    29   ar
    20    29    30   ar
    21     4     5   ar
    22     5     6   ar
    23     6     7   ar
    24     7     8   ar
    25     8     9   ar
    26    14    15   ar
    27    15    16   ar
    28    16    17    1
    29    16    18   ar
    30    18    19   ar
    31    19    20   ar
    32    20    11   ar
    33    18    13   ar
    34     9     1   ar
    35     8     3    1
    36    30    26   ar
    37    22    25    1
    38     7    10    1
@<TRIPOS>MOLECULE
*****
 34 38 0 0 0
SMALL
GASTEIGER

@<TRIPOS>ATOM
      1 C         141.5575  140.9027  164.5427 C.ar    1  UNL1        0.1655
      2 N         141.8879  140.1506  163.2876 N.ar    1  UNL1       -0.2219
      3 C         142.8140  140.9999  162.4685 C.ar    1  UNL1        0.1344
      4 C         143.4682  140.7755  161.1375 C.ar    1  UNL1        0.1049
      5 C         144.3644  141.8279  160.5553 C.ar    1  UNL1        0.0392
      6 C         144.6065  143.1050  161.3041 C.ar    1  UNL1        0.0751
      7 N         143.9522  143.3294  162.6351 N.ar    1  UNL1       -0.3361
      8 C         143.0560  142.2769  163.2173 C.ar    1  UNL1        0.1615
      9 N         142.2795  142.2168  164.4992 N.ar    1  UNL1       -0.2081
     10 H         144.1110  144.1675  163.1266 H       1  UNL1        0.1675
     11 C         141.7761  141.6196  169.3546 C.ar    1  UNL1        0.1346
     12 C         141.8641  141.5031  167.8618 C.ar    1  UNL1        0.0253
     13 C         140.8341  140.7140  167.1091 C.ar    1  UNL1        0.0234
     14 C         140.6624  140.4246  165.6473 C.ar    1  UNL1        0.0545
     15 C         139.4383  139.5731  165.4840 C.ar    1  UNL1        0.0790
     16 N         138.8536  139.3363  166.8449 N.ar    1  UNL1       -0.3227
     17 C         137.6224  138.5350  167.1483 C.3     1  UNL1        0.1305
     18 C         139.7162  140.0414  167.8493 C.ar    1  UNL1        0.0795
     19 C         139.6283  140.1579  169.3421 C.ar    1  UNL1        0.1161
     20 N         140.6582  140.9470  170.0948 N.ar    1  UNL1       -0.2377
     21 C         145.2161  143.3605  170.2955 C.3     1  UNL1        0.1110
     22 N         144.1862  142.5714  169.5428 N.am    1  UNL1       -0.2979
     23 C         142.8061  142.4087  170.1073 C.2     1  UNL1        0.2636
     24 O         142.4559  143.0351  171.4245 O.2     1  UNL1       -0.2685
     25 H         144.4161  142.1603  168.6783 H       1  UNL1        0.1498
     26 N         143.2262  139.4984  160.3886 N.ar    1  UNL1       -0.2268
     27 C         142.8703  139.3820  158.9361 C.ar    1  UNL1        0.0991
     28 C         142.7217  137.9253  158.6106 C.ar    1  UNL1        0.0339
     29 C         142.9859  137.1415  159.8620 C.ar    1  UNL1        0.1191
     30 N         143.2977  138.1137  160.9608 N.ar    1  UNL1       -0.1637
     31 C         142.3707  137.3529  157.2693 C.3     1  UNL1        0.1024
     32 N         143.2749  136.3450  156.6240 N.3     1  UNL1       -0.2664
     33 C         143.2341  134.9112  157.0628 C.3     1  UNL1        0.0899
     34 C         144.2199  136.7709  155.5398 C.3     1  UNL1        0.0899
@<TRIPOS>BOND
     1    21    22    1
     2    22    23   am
     3    23    24    2
     4    23    11    1
     5    11    12   ar
     6    12    13   ar
     7    13    14   ar
     8    14     1    1
     9     1     2   ar
    10     2     3   ar
    11     3     4   ar
    12     4    26    1
    13    26    27   ar
    14    27    28   ar
    15    28    31    1
    16    31    32    1
    17    32    33    1
    18    32    34    1
    19    28    29   ar
    20    29    30   ar
    21     4     5   ar
    22     5     6   ar
    23     6     7   ar
    24     7     8   ar
    25     8     9   ar
    26    14    15   ar
    27    15    16   ar
    28    16    17    1
    29    16    18   ar
    30    18    19   ar
    31    19    20   ar
    32    20    11   ar
    33    18    13   ar
    34     9     1   ar
    35     8     3    1
    36    30    26   ar
    37    22    25    1
    38     7    10    1
@<TRIPOS>MOLECULE
*****
 34 38 0 0 0
SMALL
GASTEIGER

@<TRIPOS>ATOM
      1 C         139.9877  144.6966  158.7180 C.ar    1  UNL1        0.1655
      2 N         139.5724  143.5467  159.5870 N.ar    1  UNL1       -0.2219
      3 C         139.8029  143.9390  161.0163 C.ar    1  UNL1        0.1344
      4 C         139.5770  143.2083  162.3066 C.ar    1  UNL1        0.1049
      5 C         139.9088  143.8698  163.6112 C.ar    1  UNL1        0.0392
      6 C         140.4667  145.2622  163.6257 C.ar    1  UNL1        0.0751
      7 N         140.6926  145.9929  162.3353 N.ar    1  UNL1       -0.3361
      8 C         140.3607  145.3313  161.0307 C.ar    1  UNL1        0.1615
      9 N         140.4750  145.7996  159.6102 N.ar    1  UNL1       -0.2081
     10 H         141.0587  146.9068  162.3447 H       1  UNL1        0.1675
     11 C         137.0422  142.4054  155.5890 C.ar    1  UNL1        0.1346
     12 C         137.8547  143.0230  156.6882 C.ar    1  UNL1        0.0253
     13 C         138.9632  143.9774  156.3561 C.ar    1  UNL1        0.0234
     14 C         139.9266  144.7365  157.2198 C.ar    1  UNL1        0.0545
     15 C         140.8180  145.5424  156.3221 C.ar    1  UNL1        0.0790
     16 N         140.4055  145.2815  154.9037 N.ar    1  UNL1       -0.3227
     17 C         141.0298  145.8822  153.6792 C.3     1  UNL1        0.1305
     18 C         139.2592  144.3142  154.9247 C.ar    1  UNL1        0.0795
     19 C         138.4468  143.6966  153.8255 C.ar    1  UNL1        0.1161
     20 N         137.3382  142.7422  154.1576 N.ar    1  UNL1       -0.2377
     21 C         133.4354  140.7580  155.7530 C.3     1  UNL1        0.1110
     22 N         134.5439  141.7124  155.4209 N.am    1  UNL1       -0.2979
     23 C         135.9337  141.4510  155.9211 C.2     1  UNL1        0.2636
     24 O         136.2149  140.2353  156.7534 O.2     1  UNL1       -0.2685
     25 H         134.3593  142.5103  154.8746 H       1  UNL1        0.1498
     26 N         139.0191  141.8159  162.2923 N.ar    1  UNL1       -0.2268
     27 C         139.7622  140.5646  162.6555 C.ar    1  UNL1        0.0991
     28 C         138.8226  139.4057  162.5000 C.ar    1  UNL1        0.0339
     29 C         137.4988  139.9409  162.0406 C.ar    1  UNL1        0.1191
     30 N         137.6202  141.4304  161.9122 N.ar    1  UNL1       -0.1637
     31 C         139.1494  137.9648  162.7584 C.3     1  UNL1        0.1024
     32 N         139.7037  137.5482  164.0885 N.3     1  UNL1       -0.2664
     33 C         141.1277  137.0899  164.1974 C.3     1  UNL1        0.0899
     34 C         138.8337  137.5901  165.3098 C.3     1  UNL1        0.0899
@<TRIPOS>BOND
     1    21    22    1
     2    22    23   am
     3    23    24    2
     4    23    11    1
     5    11    12   ar
     6    12    13   ar
     7    13    14   ar
     8    14     1    1
     9     1     2   ar
    10     2     3   ar
    11     3     4   ar
    12     4    26    1
    13    26    27   ar
    14    27    28   ar
    15    28    31    1
    16    31    32    1
    17    32    33    1
    18    32    34    1
    19    28    29   ar
    20    29    30   ar
    21     4     5   ar
    22     5     6   ar
    23     6     7   ar
    24     7     8   ar
    25     8     9   ar
    26    14    15   ar
    27    15    16   ar
    28    16    17    1
    29    16    18   ar
    30    18    19   ar
    31    19    20   ar
    32    20    11   ar
    33    18    13   ar
    34     9     1   ar
    35     8     3    1
    36    30    26   ar
    37    22    25    1
    38     7    10    1
@<TRIPOS>MOLECULE
*****
 34 38 0 0 0
SMALL
GASTEIGER

@<TRIPOS>ATOM
      1 C         140.9678  143.5826  160.4823 C.ar    1  UNL1        0.1655
      2 N         141.3672  143.1654  161.8666 N.ar    1  UNL1       -0.2219
      3 C         140.2060  143.4214  162.7810 C.ar    1  UNL1        0.1344
      4 C         140.0214  143.2048  164.2537 C.ar    1  UNL1        0.1049
      5 C         138.7200  143.5637  164.9073 C.ar    1  UNL1        0.0392
      6 C         137.6028  144.1392  164.0881 C.ar    1  UNL1        0.0751
      7 N         137.7874  144.3557  162.6154 N.ar    1  UNL1       -0.3361
      8 C         139.0890  143.9968  161.9618 C.ar    1  UNL1        0.1615
      9 N         139.5598  144.0965  160.5411 N.ar    1  UNL1       -0.2081
     10 H         137.0543  144.7334  162.0777 H       1  UNL1        0.1675
     11 C         140.5589  145.7849  156.1580 C.ar    1  UNL1        0.1346
     12 C         140.5289  145.1985  157.5383 C.ar    1  UNL1        0.0253
     13 C         141.5955  144.2349  157.9672 C.ar    1  UNL1        0.0234
     14 C         141.8258  143.5004  159.2547 C.ar    1  UNL1        0.0545
     15 C         143.0647  142.6693  159.0989 C.ar    1  UNL1        0.0790
     16 N         143.6001  142.8901  157.7152 N.ar    1  UNL1       -0.3227
     17 C         144.8279  142.2549  157.1331 C.3     1  UNL1        0.1305
     18 C         142.6921  143.8578  157.0158 C.ar    1  UNL1        0.0795
     19 C         142.7221  144.4442  155.6355 C.ar    1  UNL1        0.1161
     20 N         141.6555  145.4077  155.2066 N.ar    1  UNL1       -0.2377
     21 C         138.7051  149.1858  155.2936 C.3     1  UNL1        0.1110
     22 N         139.7717  148.2222  155.7224 N.am    1  UNL1       -0.2979
     23 C         139.4924  146.7485  155.7292 C.2     1  UNL1        0.2636
     24 O         138.1465  146.2384  155.3070 O.2     1  UNL1       -0.2685
     25 H         140.6551  148.5571  155.9995 H       1  UNL1        0.1498
     26 N         141.1385  142.6294  165.0730 N.ar    1  UNL1       -0.2268
     27 C         141.0357  141.4588  166.0053 C.ar    1  UNL1        0.0991
     28 C         142.3882  141.2295  166.6122 C.ar    1  UNL1        0.0339
     29 C         143.3267  142.2583  166.0551 C.ar    1  UNL1        0.1191
     30 N         142.5544  143.1235  165.1038 N.ar    1  UNL1       -0.1637
     31 C         142.7402  140.1592  167.6025 C.3     1  UNL1        0.1024
     32 N         142.6124  140.4264  169.0729 N.3     1  UNL1       -0.2664
     33 C         143.2758  141.6284  169.6772 C.3     1  UNL1        0.0899
     34 C         141.8213  139.4916  169.9390 C.3     1  UNL1        0.0899
@<TRIPOS>BOND
     1    21    22    1
     2    22    23   am
     3    23    24    2
     4    23    11    1
     5    11    12   ar
     6    12    13   ar
     7    13    14   ar
     8    14     1    1
     9     1     2   ar
    10     2     3   ar
    11     3     4   ar
    12     4    26    1
    13    26    27   ar
    14    27    28   ar
    15    28    31    1
    16    31    32    1
    17    32    33    1
    18    32    34    1
    19    28    29   ar
    20    29    30   ar
    21     4     5   ar
    22     5     6   ar
    23     6     7   ar
    24     7     8   ar
    25     8     9   ar
    26    14    15   ar
    27    15    16   ar
    28    16    17    1
    29    16    18   ar
    30    18    19   ar
    31    19    20   ar
    32    20    11   ar
    33    18    13   ar
    34     9     1   ar
    35     8     3    1
    36    30    26   ar
    37    22    25    1
    38     7    10    1
@<TRIPOS>MOLECULE
*****
 34 38 0 0 0
SMALL
GASTEIGER

@<TRIPOS>ATOM
      1 C         140.8526  138.5909  159.3588 C.ar    1  UNL1        0.1655
      2 N         141.6237  138.9982  160.5792 N.ar    1  UNL1       -0.2219
      3 C         140.7841  138.6878  161.7828 C.ar    1  UNL1        0.1344
      4 C         141.0275  138.8733  163.2513 C.ar    1  UNL1        0.1049
      5 C         139.9811  138.4598  164.2431 C.ar    1  UNL1        0.0392
      6 C         138.6910  137.8607  163.7666 C.ar    1  UNL1        0.0751
      7 N         138.4476  137.6752  162.2982 N.ar    1  UNL1       -0.3361
      8 C         139.4941  138.0888  161.3063 C.ar    1  UNL1        0.1615
      9 N         139.5365  138.0289  159.8081 N.ar    1  UNL1       -0.2081
     10 H         137.6010  137.2820  161.9853 H       1  UNL1        0.1675
     11 C         143.3869  135.5336  156.5398 C.ar    1  UNL1        0.1346
     12 C         142.6201  136.3448  157.5418 C.ar    1  UNL1        0.0253
     13 C         142.0993  137.7009  157.1681 C.ar    1  UNL1        0.0234
     14 C         141.3163  138.7226  157.9383 C.ar    1  UNL1        0.0545
     15 C         141.0784  139.8990  157.0386 C.ar    1  UNL1        0.0790
     16 N         141.7144  139.6044  155.7125 N.ar    1  UNL1       -0.3227
     17 C         141.7186  140.5094  154.5162 C.3     1  UNL1        0.1305
     18 C         142.3453  138.2459  155.7925 C.ar    1  UNL1        0.0795
     19 C         143.1121  137.4348  154.7905 C.ar    1  UNL1        0.1161
     20 N         143.6329  136.0786  155.1642 N.ar    1  UNL1       -0.2377
     21 C         144.8609  131.8630  156.2172 C.3     1  UNL1        0.1110
     22 N         144.3402  133.2192  155.8436 N.am    1  UNL1       -0.2979
     23 C         143.9076  134.1774  156.9134 C.2     1  UNL1        0.2636
     24 O         143.9959  133.7795  158.3569 O.2     1  UNL1       -0.2685
     25 H         144.2822  133.4804  154.8961 H       1  UNL1        0.1498
     26 N         142.3175  139.4724  163.7279 N.ar    1  UNL1       -0.2268
     27 C         142.6975  140.9215  163.6531 C.ar    1  UNL1        0.0991
     28 C         144.0688  141.0722  164.2420 C.ar    1  UNL1        0.0339
     29 C         144.5363  139.7162  164.6808 C.ar    1  UNL1        0.1191
     30 N         143.4540  138.7274  164.3631 N.ar    1  UNL1       -0.1637
     31 C         144.8376  142.3539  164.3696 C.3     1  UNL1        0.1024
     32 N         144.4014  143.5693  163.6066 N.3     1  UNL1       -0.2664
     33 C         143.8247  144.7461  164.3364 C.3     1  UNL1        0.0899
     34 C         144.5418  143.6080  162.1137 C.3     1  UNL1        0.0899
@<TRIPOS>BOND
     1    21    22    1
     2    22    23   am
     3    23    24    2
     4    23    11    1
     5    11    12   ar
     6    12    13   ar
     7    13    14   ar
     8    14     1    1
     9     1     2   ar
    10     2     3   ar
    11     3     4   ar
    12     4    26    1
    13    26    27   ar
    14    27    28   ar
    15    28    31    1
    16    31    32    1
    17    32    33    1
    18    32    34    1
    19    28    29   ar
    20    29    30   ar
    21     4     5   ar
    22     5     6   ar
    23     6     7   ar
    24     7     8   ar
    25     8     9   ar
    26    14    15   ar
    27    15    16   ar
    28    16    17    1
    29    16    18   ar
    30    18    19   ar
    31    19    20   ar
    32    20    11   ar
    33    18    13   ar
    34     9     1   ar
    35     8     3    1
    36    30    26   ar
    37    22    25    1
    38     7    10    1
@<TRIPOS>MOLECULE
*****
 34 38 0 0 0
SMALL
GASTEIGER

@<TRIPOS>ATOM
      1 C         143.3695  140.1351  159.3091 C.ar    1  UNL1        0.1655
      2 N         143.0521  141.2239  160.2909 N.ar    1  UNL1       -0.2219
      3 C         143.5344  140.7851  161.6417 C.ar    1  UNL1        0.1344
      4 C         143.4927  141.4481  162.9865 C.ar    1  UNL1        0.1049
      5 C         144.0664  140.7513  164.1844 C.ar    1  UNL1        0.0392
      6 C         144.6820  139.3913  164.0376 C.ar    1  UNL1        0.0751
      7 N         144.7237  138.7282  162.6928 N.ar    1  UNL1       -0.3361
      8 C         144.1500  139.4251  161.4949 C.ar    1  UNL1        0.1615
      9 N         144.0480  139.0234  160.0532 N.ar    1  UNL1       -0.2081
     10 H         145.1277  137.8356  162.5964 H       1  UNL1        0.1675
     11 C         142.6155  136.4936  156.1647 C.ar    1  UNL1        0.1346
     12 C         142.8715  137.4824  157.2632 C.ar    1  UNL1        0.0253
     13 C         142.8482  138.9531  156.9690 C.ar    1  UNL1        0.0234
     14 C         143.0623  140.1547  157.8411 C.ar    1  UNL1        0.0545
     15 C         142.9153  141.3791  156.9873 C.ar    1  UNL1        0.0790
     16 N         142.6103  140.9344  155.5876 N.ar    1  UNL1       -0.3227
     17 C         142.3861  141.8314  154.4065 C.3     1  UNL1        0.1305
     18 C         142.5689  139.4350  155.5763 C.ar    1  UNL1        0.0795
     19 C         142.3129  138.4462  154.4778 C.ar    1  UNL1        0.1161
     20 N         142.3362  136.9755  154.7720 N.ar    1  UNL1       -0.2377
     21 C         141.9332  132.5963  155.8561 C.3     1  UNL1        0.1110
     22 N         141.9099  134.0670  155.5619 N.am    1  UNL1       -0.2979
     23 C         142.6389  135.0230  156.4589 C.2     1  UNL1        0.2636
     24 O         143.3912  134.5083  157.6501 O.2     1  UNL1       -0.2685
     25 H         141.4161  134.4048  154.7801 H       1  UNL1        0.1498
     26 N         142.8771  142.8082  163.1334 N.ar    1  UNL1       -0.2268
     27 C         141.4117  143.1234  163.0779 C.ar    1  UNL1        0.0991
     28 C         141.2479  144.6018  163.2718 C.ar    1  UNL1        0.0339
     29 C         142.6121  145.2002  163.4471 C.ar    1  UNL1        0.1191
     30 N         143.6190  144.0917  163.3616 N.ar    1  UNL1       -0.1637
     31 C         139.9481  145.3503  163.2875 C.3     1  UNL1        0.1024
     32 N         138.7376  144.7378  163.9275 N.3     1  UNL1       -0.2664
     33 C         137.7262  144.0190  163.0846 C.3     1  UNL1        0.0899
     34 C         138.5385  144.8443  165.4104 C.3     1  UNL1        0.0899
@<TRIPOS>BOND
     1    21    22    1
     2    22    23   am
     3    23    24    2
     4    23    11    1
     5    11    12   ar
     6    12    13   ar
     7    13    14   ar
     8    14     1    1
     9     1     2   ar
    10     2     3   ar
    11     3     4   ar
    12     4    26    1
    13    26    27   ar
    14    27    28   ar
    15    28    31    1
    16    31    32    1
    17    32    33    1
    18    32    34    1
    19    28    29   ar
    20    29    30   ar
    21     4     5   ar
    22     5     6   ar
    23     6     7   ar
    24     7     8   ar
    25     8     9   ar
    26    14    15   ar
    27    15    16   ar
    28    16    17    1
    29    16    18   ar
    30    18    19   ar
    31    19    20   ar
    32    20    11   ar
    33    18    13   ar
    34     9     1   ar
    35     8     3    1
    36    30    26   ar
    37    22    25    1
    38     7    10    1
