@<TRIPOS>MOLECULE
*****
 31 35 0 0 0
SMALL
GASTEIGER

@<TRIPOS>ATOM
      1 N         140.8678  139.9617  166.8147 N.pl3   1  UNL1       -0.3033
      2 H         140.6581  139.1267  166.3371 H       1  UNL1        0.1496
      3 C         141.2528  141.1899  166.0444 C.ar    1  UNL1        0.2359
      4 N         140.3176  142.2624  165.5699 N.ar    1  UNL1       -0.1904
      5 C         141.1275  143.2965  164.8456 C.ar    1  UNL1        0.2007
      6 C         140.7431  144.5768  164.1651 C.ar    1  UNL1        0.1747
      7 C         141.7945  145.4237  163.5115 C.ar    1  UNL1        0.0417
      8 C         143.2303  144.9904  163.5383 C.ar    1  UNL1        0.0240
      9 C         143.6147  143.7101  164.2188 C.ar    1  UNL1        0.1024
     10 N         142.5633  142.8632  164.8725 N.ar    1  UNL1       -0.2053
     11 N         142.6407  141.5612  165.6134 N.ar    1  UNL1       -0.1283
     12 O         139.3073  145.0101  164.1383 O.3     1  UNL1       -0.4635
     13 C         138.4109  144.5670  163.0202 C.3     1  UNL1        0.3082
     14 C         137.6566  143.2752  163.1306 C.3     1  UNL1        0.4380
     15 F         136.9023  141.9834  163.2411 F       1  UNL1       -0.1663
     16 F         137.7715  143.0813  161.6477 F       1  UNL1       -0.1663
     17 F         137.5418  143.4691  164.6136 F       1  UNL1       -0.1663
     18 N         140.9471  139.9585  166.9501 N.pl3   1  UNL1       -0.3014
     19 C         139.6212  140.0884  167.6392 C.3     1  UNL1        0.0929
     20 C         139.5555  140.1325  169.1372 C.3     1  UNL1        0.0378
     21 C         139.9545  140.1358  170.5831 C.3     1  UNL1        0.0035
     22 C         141.4477  140.0112  170.6523 C.3     1  UNL1        0.0035
     23 C         141.9716  139.9308  169.2489 C.3     1  UNL1        0.0378
     24 C         142.2075  139.8726  167.7589 C.3     1  UNL1        0.0929
     25 C         140.8022  140.0058  168.3126 C.3     1  UNL1        0.0750
     26 C         139.6201  140.3238  161.8524 C.3     1  UNL1        0.0528
     27 C         140.4028  140.0824  163.1090 C.ar    1  UNL1        0.0690
     28 C         139.9010  140.2699  164.5101 C.ar    1  UNL1        0.0380
     29 C         141.0128  139.9145  165.4522 C.ar    1  UNL1        0.0974
     30 S         142.2018  139.5073  164.6334 S.2     1  UNL1        0.0274
     31 N         141.8248  139.6111  163.1852 N.ar    1  UNL1       -0.2122
@<TRIPOS>BOND
     1    26    27    1
     2    27    28   ar
     3    28    29   ar
     4    29    18    1
     5    18    19    1
     6    20    19    1
     7    20    21    1
     8    21    22    1
     9    23    22    1
    10    23    24    1
    11    23    25    1
    12    25     1    1
    13     1     3    1
    14     3     4   ar
    15     4     5   ar
    16     5     6   ar
    17     6    12    1
    18    12    13    1
    19    13    14    1
    20    14    15    1
    21    14    16    1
    22    14    17    1
    23     6     7   ar
    24     7     8   ar
    25     8     9   ar
    26     9    10   ar
    27    10    11   ar
    28    29    30   ar
    29    30    31   ar
    30    31    27   ar
    31    24    18    1
    32    11     3   ar
    33    25    20    1
    34    10     5   ar
    35     1     2    1
@<TRIPOS>MOLECULE
*****
 31 35 0 0 0
SMALL
GASTEIGER

@<TRIPOS>ATOM
      1 N         141.1687  139.7610  166.8189 N.pl3   1  UNL1       -0.3033
      2 H         141.1898  138.8652  166.4110 H       1  UNL1        0.1496
      3 C         141.6627  140.9483  166.0467 C.ar    1  UNL1        0.2359
      4 N         140.8956  141.7009  165.0003 N.ar    1  UNL1       -0.1904
      5 C         141.7694  142.8092  164.4923 C.ar    1  UNL1        0.2007
      6 C         141.5436  143.8712  163.4574 C.ar    1  UNL1        0.1747
      7 C         142.6250  144.8657  163.1550 C.ar    1  UNL1        0.0417
      8 C         143.9322  144.7982  163.8875 C.ar    1  UNL1        0.0240
      9 C         144.1580  143.7362  164.9225 C.ar    1  UNL1        0.1024
     10 N         143.0766  142.7417  165.2248 N.ar    1  UNL1       -0.2053
     11 N         143.0107  141.5916  166.1855 N.ar    1  UNL1       -0.1283
     12 O         140.2364  143.9388  162.7248 O.3     1  UNL1       -0.4635
     13 C         139.1945  144.9347  163.1401 C.3     1  UNL1        0.3082
     14 C         138.1792  144.5680  164.1816 C.3     1  UNL1        0.4380
     15 F         137.1639  144.2012  165.2230 F       1  UNL1       -0.1663
     16 F         139.0300  145.2100  165.2370 F       1  UNL1       -0.1663
     17 F         137.3284  143.9259  163.1261 F       1  UNL1       -0.1663
     18 N         141.2018  139.7685  166.9722 N.pl3   1  UNL1       -0.3014
     19 C         139.7341  139.9793  167.1985 C.3     1  UNL1        0.0929
     20 C         139.2080  140.1568  168.5920 C.3     1  UNL1        0.0378
     21 C         139.1375  140.2821  170.0851 C.3     1  UNL1        0.0035
     22 C         140.5286  140.1413  170.6283 C.3     1  UNL1        0.0035
     23 C         141.4589  139.9289  169.4708 C.3     1  UNL1        0.0378
     24 C         142.1435  139.7353  168.1393 C.3     1  UNL1        0.0929
     25 C         140.6427  139.9385  168.2123 C.3     1  UNL1        0.0750
     26 C         144.4892  139.1621  162.8848 C.3     1  UNL1        0.0528
     27 C         143.2390  139.3123  163.6999 C.ar    1  UNL1        0.0690
     28 C         143.1721  139.4777  165.1893 C.ar    1  UNL1        0.0380
     29 C         141.7280  139.5910  165.5787 C.ar    1  UNL1        0.0974
     30 S         140.9023  139.4957  164.3300 S.2     1  UNL1        0.0274
     31 N         141.8362  139.3234  163.1689 N.ar    1  UNL1       -0.2122
@<TRIPOS>BOND
     1    26    27    1
     2    27    28   ar
     3    28    29   ar
     4    29    18    1
     5    18    19    1
     6    20    19    1
     7    20    21    1
     8    21    22    1
     9    23    22    1
    10    23    24    1
    11    23    25    1
    12    25     1    1
    13     1     3    1
    14     3     4   ar
    15     4     5   ar
    16     5     6   ar
    17     6    12    1
    18    12    13    1
    19    13    14    1
    20    14    15    1
    21    14    16    1
    22    14    17    1
    23     6     7   ar
    24     7     8   ar
    25     8     9   ar
    26     9    10   ar
    27    10    11   ar
    28    29    30   ar
    29    30    31   ar
    30    31    27   ar
    31    24    18    1
    32    11     3   ar
    33    25    20    1
    34    10     5   ar
    35     1     2    1
@<TRIPOS>MOLECULE
*****
 31 35 0 0 0
SMALL
GASTEIGER

@<TRIPOS>ATOM
      1 N         140.9525  139.8408  166.4235 N.pl3   1  UNL1       -0.3033
      2 H         140.3264  139.2001  166.0152 H       1  UNL1        0.1496
      3 C         141.6294  140.8739  165.5724 C.ar    1  UNL1        0.2359
      4 N         141.0984  142.2404  165.2549 N.ar    1  UNL1       -0.1904
      5 C         142.0970  142.9330  164.3756 C.ar    1  UNL1        0.2007
      6 C         142.1091  144.2969  163.7515 C.ar    1  UNL1        0.1747
      7 C         143.2694  144.7224  162.9015 C.ar    1  UNL1        0.0417
      8 C         144.4176  143.7840  162.6755 C.ar    1  UNL1        0.0240
      9 C         144.4055  142.4201  163.2996 C.ar    1  UNL1        0.1024
     10 N         143.2452  141.9946  164.1497 N.ar    1  UNL1       -0.2053
     11 N         142.9562  140.7220  164.8893 N.ar    1  UNL1       -0.1283
     12 O         140.9610  145.2354  163.9775 O.3     1  UNL1       -0.4635
     13 C         139.6383  144.9742  163.3200 C.3     1  UNL1        0.3082
     14 C         138.4582  144.5593  164.1479 C.3     1  UNL1        0.4380
     15 F         137.2781  144.1445  164.9757 F       1  UNL1       -0.1663
     16 F         139.1731  145.0034  165.3895 F       1  UNL1       -0.1663
     17 F         137.7433  144.1152  162.9062 F       1  UNL1       -0.1663
     18 N         141.0569  139.8104  166.5368 N.pl3   1  UNL1       -0.3014
     19 C         139.9792  140.1680  167.5169 C.3     1  UNL1        0.0929
     20 C         140.2562  140.1111  168.9901 C.3     1  UNL1        0.0378
     21 C         140.9536  139.9192  170.3041 C.3     1  UNL1        0.0035
     22 C         142.3580  139.4735  170.0228 C.3     1  UNL1        0.0035
     23 C         142.5285  139.3898  168.5348 C.3     1  UNL1        0.0378
     24 C         142.4116  139.3959  167.0297 C.3     1  UNL1        0.0929
     25 C         141.2295  139.7839  167.8965 C.3     1  UNL1        0.0750
     26 C         138.9308  141.0754  161.8719 C.3     1  UNL1        0.0528
     27 C         139.8026  140.4488  162.9194 C.ar    1  UNL1        0.0690
     28 C         139.7256  140.6999  164.3962 C.ar    1  UNL1        0.0380
     29 C         140.7799  139.8673  165.0636 C.ar    1  UNL1        0.0974
     30 S         141.5085  139.1016  163.9993 S.2     1  UNL1        0.0274
     31 N         140.9045  139.4610  162.6741 N.ar    1  UNL1       -0.2122
@<TRIPOS>BOND
     1    26    27    1
     2    27    28   ar
     3    28    29   ar
     4    29    18    1
     5    18    19    1
     6    20    19    1
     7    20    21    1
     8    21    22    1
     9    23    22    1
    10    23    24    1
    11    23    25    1
    12    25     1    1
    13     1     3    1
    14     3     4   ar
    15     4     5   ar
    16     5     6   ar
    17     6    12    1
    18    12    13    1
    19    13    14    1
    20    14    15    1
    21    14    16    1
    22    14    17    1
    23     6     7   ar
    24     7     8   ar
    25     8     9   ar
    26     9    10   ar
    27    10    11   ar
    28    29    30   ar
    29    30    31   ar
    30    31    27   ar
    31    24    18    1
    32    11     3   ar
    33    25    20    1
    34    10     5   ar
    35     1     2    1
@<TRIPOS>MOLECULE
*****
 31 35 0 0 0
SMALL
GASTEIGER

@<TRIPOS>ATOM
      1 N         141.8261  140.8272  166.4301 N.pl3   1  UNL1       -0.3033
      2 H         142.5512  141.4663  166.2429 H       1  UNL1        0.1496
      3 C         140.9558  140.3324  165.3131 C.ar    1  UNL1        0.2359
      4 N         139.7406  141.0237  164.7695 N.ar    1  UNL1       -0.1904
      5 C         139.1816  140.1779  163.6641 C.ar    1  UNL1        0.2007
      6 C         137.9931  140.3564  162.7666 C.ar    1  UNL1        0.1747
      7 C         137.6741  139.3207  161.7296 C.ar    1  UNL1        0.0417
      8 C         138.5437  138.1065  161.5899 C.ar    1  UNL1        0.0240
      9 C         139.7323  137.9280  162.4874 C.ar    1  UNL1        0.1024
     10 N         140.0512  138.9637  163.5245 N.ar    1  UNL1       -0.2053
     11 N         141.1477  139.0592  164.5436 N.ar    1  UNL1       -0.1283
     12 O         137.1235  141.5706  162.9063 O.3     1  UNL1       -0.4635
     13 C         137.6857  142.9323  162.6239 C.3     1  UNL1        0.3082
     14 C         137.8595  143.9183  163.7409 C.3     1  UNL1        0.4380
     15 F         138.0333  144.9043  164.8578 F       1  UNL1       -0.1663
     16 F         137.2818  142.9264  164.7064 F       1  UNL1       -0.1663
     17 F         138.4372  144.9102  162.7753 F       1  UNL1       -0.1663
     18 N         141.7308  140.8267  166.5548 N.pl3   1  UNL1       -0.3014
     19 C         142.7489  139.9566  167.2303 C.3     1  UNL1        0.0929
     20 C         142.5145  139.4778  168.6324 C.3     1  UNL1        0.0378
     21 C         141.8864  139.2475  169.9750 C.3     1  UNL1        0.0035
     22 C         140.5754  139.9759  170.0045 C.3     1  UNL1        0.0035
     23 C         140.3932  140.6563  168.6801 C.3     1  UNL1        0.0378
     24 C         140.4782  141.2181  167.2814 C.3     1  UNL1        0.0929
     25 C         141.5916  140.3485  167.8321 C.3     1  UNL1        0.0750
     26 C         141.5156  143.6919  162.1247 C.3     1  UNL1        0.0528
     27 C         141.8663  142.6225  163.1164 C.ar    1  UNL1        0.0690
     28 C         141.3593  142.5257  164.5248 C.ar    1  UNL1        0.0380
     29 C         141.9652  141.3055  165.1527 C.ar    1  UNL1        0.0974
     30 S         142.8467  140.6483  164.1324 S.2     1  UNL1        0.0274
     31 N         142.7856  141.4622  162.8739 N.ar    1  UNL1       -0.2122
@<TRIPOS>BOND
     1    26    27    1
     2    27    28   ar
     3    28    29   ar
     4    29    18    1
     5    18    19    1
     6    20    19    1
     7    20    21    1
     8    21    22    1
     9    23    22    1
    10    23    24    1
    11    23    25    1
    12    25     1    1
    13     1     3    1
    14     3     4   ar
    15     4     5   ar
    16     5     6   ar
    17     6    12    1
    18    12    13    1
    19    13    14    1
    20    14    15    1
    21    14    16    1
    22    14    17    1
    23     6     7   ar
    24     7     8   ar
    25     8     9   ar
    26     9    10   ar
    27    10    11   ar
    28    29    30   ar
    29    30    31   ar
    30    31    27   ar
    31    24    18    1
    32    11     3   ar
    33    25    20    1
    34    10     5   ar
    35     1     2    1
@<TRIPOS>MOLECULE
*****
 31 35 0 0 0
SMALL
GASTEIGER

@<TRIPOS>ATOM
      1 N         142.9312  141.4005  166.6783 N.pl3   1  UNL1       -0.3033
      2 H         143.8478  141.5126  166.3369 H       1  UNL1        0.1496
      3 C         141.7616  141.8243  165.8402 C.ar    1  UNL1        0.2359
      4 N         141.0828  140.9954  164.7903 N.ar    1  UNL1       -0.1904
      5 C         139.9671  141.8102  164.2061 C.ar    1  UNL1        0.2007
      6 C         138.9596  141.5109  163.1359 C.ar    1  UNL1        0.1747
      7 C         137.9413  142.5441  162.7545 C.ar    1  UNL1        0.0417
      8 C         137.9305  143.8766  163.4433 C.ar    1  UNL1        0.0240
      9 C         138.9380  144.1758  164.5135 C.ar    1  UNL1        0.1024
     10 N         139.9563  143.1426  164.8949 N.ar    1  UNL1       -0.2053
     11 N         141.0654  143.1513  165.9048 N.ar    1  UNL1       -0.1283
     12 O         138.9704  140.1785  162.4471 O.3     1  UNL1       -0.4635
     13 C         138.2062  139.0268  163.0297 C.3     1  UNL1        0.3082
     14 C         138.8500  138.1418  164.0556 C.3     1  UNL1        0.4380
     15 F         139.4937  137.2568  165.0815 F       1  UNL1       -0.1663
     16 F         138.2422  138.9683  165.1500 F       1  UNL1       -0.1663
     17 F         139.4577  137.3153  162.9613 F       1  UNL1       -0.1663
     18 N         142.8965  141.2721  166.7617 N.pl3   1  UNL1       -0.3014
     19 C         143.0086  142.1325  167.9853 C.3     1  UNL1        0.0929
     20 C         142.7817  141.5380  169.3436 C.3     1  UNL1        0.0378
     21 C         142.4855  140.5594  170.4412 C.3     1  UNL1        0.0035
     22 C         142.2250  139.2226  169.8126 C.3     1  UNL1        0.0035
     23 C         142.3603  139.3750  168.3264 C.3     1  UNL1        0.0378
     24 C         142.5575  139.8171  166.8965 C.3     1  UNL1        0.0929
     25 C         142.7044  140.8059  168.0366 C.3     1  UNL1        0.0750
     26 C         143.6609  144.7571  162.8692 C.3     1  UNL1        0.0528
     27 C         143.4747  143.4686  163.6142 C.ar    1  UNL1        0.0690
     28 C         143.2604  143.3276  165.0920 C.ar    1  UNL1        0.0380
     29 C         143.1233  141.8667  165.4033 C.ar    1  UNL1        0.0974
     30 S         143.2530  141.1047  164.1178 S.2     1  UNL1        0.0274
     31 N         143.4701  142.0947  163.0121 N.ar    1  UNL1       -0.2122
@<TRIPOS>BOND
     1    26    27    1
     2    27    28   ar
     3    28    29   ar
     4    29    18    1
     5    18    19    1
     6    20    19    1
     7    20    21    1
     8    21    22    1
     9    23    22    1
    10    23    24    1
    11    23    25    1
    12    25     1    1
    13     1     3    1
    14     3     4   ar
    15     4     5   ar
    16     5     6   ar
    17     6    12    1
    18    12    13    1
    19    13    14    1
    20    14    15    1
    21    14    16    1
    22    14    17    1
    23     6     7   ar
    24     7     8   ar
    25     8     9   ar
    26     9    10   ar
    27    10    11   ar
    28    29    30   ar
    29    30    31   ar
    30    31    27   ar
    31    24    18    1
    32    11     3   ar
    33    25    20    1
    34    10     5   ar
    35     1     2    1
@<TRIPOS>MOLECULE
*****
 31 35 0 0 0
SMALL
GASTEIGER

@<TRIPOS>ATOM
      1 N         141.4893  140.8268  167.1054 N.pl3   1  UNL1       -0.3033
      2 H         142.4705  140.7456  167.1063 H       1  UNL1        0.1496
      3 C         140.7042  140.4205  165.8936 C.ar    1  UNL1        0.2359
      4 N         140.2150  141.3373  164.8118 N.ar    1  UNL1       -0.1904
      5 C         139.4789  140.5095  163.8004 C.ar    1  UNL1        0.2007
      6 C         138.7819  140.8719  162.5226 C.ar    1  UNL1        0.1747
      7 C         138.1191  139.8059  161.7015 C.ar    1  UNL1        0.0417
      8 C         138.1533  138.3775  162.1582 C.ar    1  UNL1        0.0240
      9 C         138.8503  138.0152  163.4360 C.ar    1  UNL1        0.1024
     10 N         139.5131  139.0812  164.2571 N.ar    1  UNL1       -0.2053
     11 N         140.2704  139.0262  165.5507 N.ar    1  UNL1       -0.1283
     12 O         138.7477  142.3003  162.0659 O.3     1  UNL1       -0.4635
     13 C         137.7250  143.2430  162.6274 C.3     1  UNL1        0.3082
     14 C         138.0676  144.1066  163.8050 C.3     1  UNL1        0.4380
     15 F         138.4102  144.9702  164.9826 F       1  UNL1       -0.1663
     16 F         138.7723  145.0682  162.8948 F       1  UNL1       -0.1663
     17 F         137.3628  143.1450  164.7153 F       1  UNL1       -0.1663
     18 N         141.3941  140.7958  167.2264 N.pl3   1  UNL1       -0.3014
     19 C         141.5387  142.2390  167.6085 C.3     1  UNL1        0.0929
     20 C         140.8289  142.7691  168.8191 C.3     1  UNL1        0.0378
     21 C         139.9758  142.8527  170.0499 C.3     1  UNL1        0.0035
     22 C         139.3990  141.4921  170.3076 C.3     1  UNL1        0.0035
     23 C         139.8959  140.5676  169.2358 C.3     1  UNL1        0.0378
     24 C         140.5399  139.8825  168.0547 C.3     1  UNL1        0.0929
     25 C         140.7796  141.3568  168.3159 C.3     1  UNL1        0.0750
     26 C         143.8127  140.5245  162.5404 C.3     1  UNL1        0.0528
     27 C         143.2156  140.1411  163.8619 C.ar    1  UNL1        0.0690
     28 C         142.5527  141.0721  164.8333 C.ar    1  UNL1        0.0380
     29 C         142.1039  140.2657  166.0158 C.ar    1  UNL1        0.0974
     30 S         142.4895  138.8362  165.7752 S.2     1  UNL1        0.0274
     31 N         143.1765  138.7591  164.4441 N.ar    1  UNL1       -0.2122
@<TRIPOS>BOND
     1    26    27    1
     2    27    28   ar
     3    28    29   ar
     4    29    18    1
     5    18    19    1
     6    20    19    1
     7    20    21    1
     8    21    22    1
     9    23    22    1
    10    23    24    1
    11    23    25    1
    12    25     1    1
    13     1     3    1
    14     3     4   ar
    15     4     5   ar
    16     5     6   ar
    17     6    12    1
    18    12    13    1
    19    13    14    1
    20    14    15    1
    21    14    16    1
    22    14    17    1
    23     6     7   ar
    24     7     8   ar
    25     8     9   ar
    26     9    10   ar
    27    10    11   ar
    28    29    30   ar
    29    30    31   ar
    30    31    27   ar
    31    24    18    1
    32    11     3   ar
    33    25    20    1
    34    10     5   ar
    35     1     2    1
