@<TRIPOS>MOLECULE
*****
 32 35 0 0 0
SMALL
GASTEIGER

@<TRIPOS>ATOM
      1 C         141.9451  141.1985  164.4958 C.ar    1  UNL1        0.1679
      2 C         142.0755  142.6308  164.9221 C.ar    1  UNL1        0.0702
      3 C         141.9718  143.7284  163.9050 C.ar    1  UNL1        0.1620
      4 F         142.1022  145.1606  164.3312 F       1  UNL1       -0.2026
      5 C         141.7376  143.3937  162.4616 C.ar    1  UNL1        0.1549
      6 C         141.6072  141.9615  162.0354 C.ar    1  UNL1        0.0553
      7 C         141.7109  140.8639  163.0525 C.ar    1  UNL1        0.1753
      8 F         141.5805  139.4316  162.6262 F       1  UNL1       -0.2009
      9 S         141.6339  144.4914  161.4446 S.O2    1  UNL1        0.0769
     10 O         140.2806  144.8577  161.9780 O.2     1  UNL1       -0.1498
     11 O         142.9871  144.1250  160.9112 O.2     1  UNL1       -0.1498
     12 N         141.5301  145.5890  160.4275 N.pl3   1  UNL1       -0.1987
     13 H         141.5839  146.5301  160.7116 H       1  UNL1        0.1753
     14 C         141.3445  145.2528  158.9775 C.ar    1  UNL1        0.1503
     15 C         140.2893  144.2698  158.5646 C.ar    1  UNL1        0.0563
     16 C         140.1037  143.9336  157.1147 C.ar    1  UNL1        0.1036
     17 N         140.9732  144.5804  156.0775 N.ar    1  UNL1       -0.2223
     18 C         142.0283  145.5634  156.4903 C.ar    1  UNL1        0.2001
     19 N         142.2139  145.8995  157.9403 N.ar    1  UNL1       -0.2077
     20 O         142.0488  140.1009  165.5129 O.3     1  UNL1       -0.4764
     21 C         139.7070  139.5853  166.5130 C.3     1  UNL1        0.0799
     22 C         138.7725  139.5591  167.6861 C.3     1  UNL1        0.0095
     23 C         139.2455  140.0222  169.0321 C.3     1  UNL1        0.0006
     24 C         140.6528  140.5115  169.2051 C.3     1  UNL1        0.0037
     25 C         141.5873  140.5377  168.0320 C.3     1  UNL1        0.0439
     26 C         141.1143  140.0746  166.6860 C.3     1  UNL1        0.1714
     27 C         138.1299  141.3990  164.3055 C.3     1  UNL1        0.1533
     28 N         138.5092  139.9559  164.1522 N.ar    1  UNL1       -0.2527
     29 N         138.2302  139.0931  162.9574 N.ar    1  UNL1       -0.1679
     30 C         138.7827  137.7261  163.2336 C.ar    1  UNL1        0.1213
     31 C         139.4031  137.7442  164.5991 C.ar    1  UNL1        0.0369
     32 C         139.2341  139.1223  165.1669 C.ar    1  UNL1        0.0603
@<TRIPOS>BOND
     1    27    28    1
     2    28    29   ar
     3    29    30   ar
     4    30    31   ar
     5    31    32   ar
     6    21    32    1
     7    21    22    1
     8    22    23    1
     9    23    24    1
    10    24    25    1
    11    25    26    1
    12    26    20    1
    13    20     1    1
    14     1     2   ar
    15     2     3   ar
    16     3     4    1
    17     3     5   ar
    18     5     9    1
    19     9    10    2
    20     9    11    2
    21     9    12    1
    22    12    14    1
    23    14    15   ar
    24    15    16   ar
    25    16    17   ar
    26    17    18   ar
    27    18    19   ar
    28     5     6   ar
    29     6     7   ar
    30     7     8    1
    31    32    28   ar
    32    26    21    1
    33     7     1   ar
    34    19    14   ar
    35    12    13    1
@<TRIPOS>MOLECULE
*****
 32 35 0 0 0
SMALL
GASTEIGER

@<TRIPOS>ATOM
      1 C         139.9428  142.6018  165.4283 C.ar    1  UNL1        0.1679
      2 C         140.4711  141.9974  164.1611 C.ar    1  UNL1        0.0702
      3 C         140.4515  142.7893  162.8874 C.ar    1  UNL1        0.1620
      4 F         140.9797  142.1849  161.6202 F       1  UNL1       -0.2026
      5 C         139.9037  144.1857  162.8808 C.ar    1  UNL1        0.1549
      6 C         139.3755  144.7901  164.1479 C.ar    1  UNL1        0.0553
      7 C         139.3950  143.9982  165.4217 C.ar    1  UNL1        0.1753
      8 F         138.8668  144.6026  166.6888 F       1  UNL1       -0.2009
      9 S         139.8841  144.9777  161.6071 S.O2    1  UNL1        0.0769
     10 O         140.8706  145.9440  162.1927 O.2     1  UNL1       -0.1498
     11 O         138.8976  144.0114  161.0214 O.2     1  UNL1       -0.1498
     12 N         139.8645  145.7697  160.3333 N.pl3   1  UNL1       -0.1987
     13 H         139.2994  146.5726  160.2615 H       1  UNL1        0.1753
     14 C         140.7061  145.3383  159.1689 C.ar    1  UNL1        0.1503
     15 C         140.3366  145.7625  157.7785 C.ar    1  UNL1        0.0563
     16 C         141.1782  145.3311  156.6142 C.ar    1  UNL1        0.1036
     17 N         142.3893  144.4755  156.8404 N.ar    1  UNL1       -0.2223
     18 C         142.7588  144.0512  158.2308 C.ar    1  UNL1        0.2001
     19 N         141.9172  144.4826  159.3951 N.ar    1  UNL1       -0.2077
     20 O         139.9624  141.8098  166.7020 O.3     1  UNL1       -0.4764
     21 C         142.2992  141.7298  167.8348 C.3     1  UNL1        0.0799
     22 C         143.2151  142.1305  168.9530 C.3     1  UNL1        0.0095
     23 C         142.7103  143.0118  170.0567 C.3     1  UNL1        0.0006
     24 C         141.2894  143.4926  170.0423 C.3     1  UNL1        0.0037
     25 C         140.3735  143.0919  168.9240 C.3     1  UNL1        0.0439
     26 C         140.8783  142.2105  167.8203 C.3     1  UNL1        0.1714
     27 C         144.0002  142.7059  165.2264 C.3     1  UNL1        0.1533
     28 N         143.5858  141.2971  165.5321 N.ar    1  UNL1       -0.2527
     29 N         143.8806  140.0895  164.6925 N.ar    1  UNL1       -0.1679
     30 C         143.2810  138.8945  165.3725 C.ar    1  UNL1        0.1213
     31 C         142.6156  139.3635  166.6324 C.ar    1  UNL1        0.0369
     32 C         142.8040  140.8484  166.7310 C.ar    1  UNL1        0.0603
@<TRIPOS>BOND
     1    27    28    1
     2    28    29   ar
     3    29    30   ar
     4    30    31   ar
     5    31    32   ar
     6    21    32    1
     7    21    22    1
     8    22    23    1
     9    23    24    1
    10    24    25    1
    11    25    26    1
    12    26    20    1
    13    20     1    1
    14     1     2   ar
    15     2     3   ar
    16     3     4    1
    17     3     5   ar
    18     5     9    1
    19     9    10    2
    20     9    11    2
    21     9    12    1
    22    12    14    1
    23    14    15   ar
    24    15    16   ar
    25    16    17   ar
    26    17    18   ar
    27    18    19   ar
    28     5     6   ar
    29     6     7   ar
    30     7     8    1
    31    32    28   ar
    32    26    21    1
    33     7     1   ar
    34    19    14   ar
    35    12    13    1
@<TRIPOS>MOLECULE
*****
 32 35 0 0 0
SMALL
GASTEIGER

@<TRIPOS>ATOM
      1 C         142.1824  140.8867  164.5207 C.ar    1  UNL1        0.1679
      2 C         141.7026  140.6537  163.1187 C.ar    1  UNL1        0.0702
      3 C         141.5590  141.8094  162.1733 C.ar    1  UNL1        0.1620
      4 F         141.0792  141.5764  160.7714 F       1  UNL1       -0.2026
      5 C         141.8952  143.1981  162.6300 C.ar    1  UNL1        0.1549
      6 C         142.3749  143.4311  164.0319 C.ar    1  UNL1        0.0553
      7 C         142.5185  142.2754  164.9773 C.ar    1  UNL1        0.1753
      8 F         142.9983  142.5085  166.3793 F       1  UNL1       -0.2009
      9 S         141.7516  144.3538  161.6846 S.O2    1  UNL1        0.0769
     10 O         140.4362  144.7053  162.3140 O.2     1  UNL1       -0.1498
     11 O         143.0670  144.0024  161.0551 O.2     1  UNL1       -0.1498
     12 N         141.6080  145.5095  160.7392 N.pl3   1  UNL1       -0.1987
     13 H         141.6954  146.4318  161.0723 H       1  UNL1        0.1753
     14 C         141.3312  145.2600  159.2862 C.ar    1  UNL1        0.1503
     15 C         140.1569  144.4197  158.8799 C.ar    1  UNL1        0.0563
     16 C         139.8801  144.1702  157.4270 C.ar    1  UNL1        0.1036
     17 N         140.7776  144.7610  156.3803 N.ar    1  UNL1       -0.2223
     18 C         141.9519  145.6012  156.7866 C.ar    1  UNL1        0.2001
     19 N         142.2286  145.8507  158.2395 N.ar    1  UNL1       -0.2077
     20 O         142.3260  139.7310  165.4661 O.3     1  UNL1       -0.4764
     21 C         140.2358  140.0347  166.9791 C.3     1  UNL1        0.0799
     22 C         139.6196  140.1021  168.3450 C.3     1  UNL1        0.0095
     23 C         140.4774  139.9333  169.5639 C.3     1  UNL1        0.0006
     24 C         141.9514  139.6971  169.4169 C.3     1  UNL1        0.0037
     25 C         142.5676  139.6297  168.0510 C.3     1  UNL1        0.0439
     26 C         141.7098  139.7985  166.8321 C.3     1  UNL1        0.1714
     27 C         139.2713  137.6529  164.9674 C.3     1  UNL1        0.1533
     28 N         138.9347  139.1087  164.8355 N.ar    1  UNL1       -0.2527
     29 N         138.0957  139.7253  163.7558 N.ar    1  UNL1       -0.1679
     30 C         138.0204  141.2012  164.0131 C.ar    1  UNL1        0.1213
     31 C         138.8130  141.4967  165.2519 C.ar    1  UNL1        0.0369
     32 C         139.3780  140.2035  165.7602 C.ar    1  UNL1        0.0603
@<TRIPOS>BOND
     1    27    28    1
     2    28    29   ar
     3    29    30   ar
     4    30    31   ar
     5    31    32   ar
     6    21    32    1
     7    21    22    1
     8    22    23    1
     9    23    24    1
    10    24    25    1
    11    25    26    1
    12    26    20    1
    13    20     1    1
    14     1     2   ar
    15     2     3   ar
    16     3     4    1
    17     3     5   ar
    18     5     9    1
    19     9    10    2
    20     9    11    2
    21     9    12    1
    22    12    14    1
    23    14    15   ar
    24    15    16   ar
    25    16    17   ar
    26    17    18   ar
    27    18    19   ar
    28     5     6   ar
    29     6     7   ar
    30     7     8    1
    31    32    28   ar
    32    26    21    1
    33     7     1   ar
    34    19    14   ar
    35    12    13    1
@<TRIPOS>MOLECULE
*****
 32 35 0 0 0
SMALL
GASTEIGER

@<TRIPOS>ATOM
      1 C         141.5601  141.3776  164.7344 C.ar    1  UNL1        0.1679
      2 C         141.5334  142.8361  165.0838 C.ar    1  UNL1        0.0702
      3 C         141.5125  143.8679  163.9952 C.ar    1  UNL1        0.1620
      4 F         141.4859  145.3263  164.3446 F       1  UNL1       -0.2026
      5 C         141.5182  143.4411  162.5572 C.ar    1  UNL1        0.1549
      6 C         141.5448  141.9826  162.2078 C.ar    1  UNL1        0.0553
      7 C         141.5658  140.9508  163.2964 C.ar    1  UNL1        0.1753
      8 F         141.5924  139.4923  162.9469 F       1  UNL1       -0.2009
      9 S         141.4973  144.4728  161.4686 S.O2    1  UNL1        0.0769
     10 O         142.9767  144.3078  161.2837 O.2     1  UNL1       -0.1498
     11 O         140.0179  144.6378  161.6534 O.2     1  UNL1       -0.1498
     12 N         141.4763  145.5046  160.3800 N.pl3   1  UNL1       -0.1987
     13 H         141.4600  146.4619  160.6093 H       1  UNL1        0.1753
     14 C         141.4802  145.0778  158.9419 C.ar    1  UNL1        0.1503
     15 C         140.7432  143.8396  158.5251 C.ar    1  UNL1        0.0563
     16 C         140.7471  143.4129  157.0871 C.ar    1  UNL1        0.1036
     17 N         141.4880  144.2242  156.0660 N.ar    1  UNL1       -0.2223
     18 C         142.2250  145.4624  156.4828 C.ar    1  UNL1        0.2001
     19 N         142.2211  145.8891  157.9208 N.ar    1  UNL1       -0.2077
     20 O         141.5810  140.3458  165.8230 O.3     1  UNL1       -0.4764
     21 C         139.7879  140.1009  167.6871 C.3     1  UNL1        0.0799
     22 C         138.5025  139.5081  168.1833 C.3     1  UNL1        0.0095
     23 C         137.7248  138.5672  167.3117 C.3     1  UNL1        0.0006
     24 C         138.2325  138.2192  165.9438 C.3     1  UNL1        0.0037
     25 C         139.5179  138.8120  165.4475 C.3     1  UNL1        0.0439
     26 C         140.2956  139.7529  166.3192 C.3     1  UNL1        0.1714
     27 C         142.2457  139.2870  169.6738 C.3     1  UNL1        0.1533
     28 N         141.6954  140.6678  169.4719 N.ar    1  UNL1       -0.2527
     29 N         142.1782  141.9168  170.1478 N.ar    1  UNL1       -0.1679
     30 C         141.3469  143.0629  169.6523 C.ar    1  UNL1        0.1213
     31 C         140.3503  142.5222  168.6703 C.ar    1  UNL1        0.0369
     32 C         140.5657  141.0419  168.5588 C.ar    1  UNL1        0.0603
@<TRIPOS>BOND
     1    27    28    1
     2    28    29   ar
     3    29    30   ar
     4    30    31   ar
     5    31    32   ar
     6    21    32    1
     7    21    22    1
     8    22    23    1
     9    23    24    1
    10    24    25    1
    11    25    26    1
    12    26    20    1
    13    20     1    1
    14     1     2   ar
    15     2     3   ar
    16     3     4    1
    17     3     5   ar
    18     5     9    1
    19     9    10    2
    20     9    11    2
    21     9    12    1
    22    12    14    1
    23    14    15   ar
    24    15    16   ar
    25    16    17   ar
    26    17    18   ar
    27    18    19   ar
    28     5     6   ar
    29     6     7   ar
    30     7     8    1
    31    32    28   ar
    32    26    21    1
    33     7     1   ar
    34    19    14   ar
    35    12    13    1
@<TRIPOS>MOLECULE
*****
 32 35 0 0 0
SMALL
GASTEIGER

@<TRIPOS>ATOM
      1 C         139.8997  142.6989  164.6765 C.ar    1  UNL1        0.1679
      2 C         140.6696  143.9833  164.7649 C.ar    1  UNL1        0.0702
      3 C         141.0702  144.7052  163.5125 C.ar    1  UNL1        0.1620
      4 F         141.8400  145.9895  163.6008 F       1  UNL1       -0.2026
      5 C         140.7009  144.1427  162.1719 C.ar    1  UNL1        0.1549
      6 C         139.9311  142.8584  162.0835 C.ar    1  UNL1        0.0553
      7 C         139.5305  142.1365  163.3359 C.ar    1  UNL1        0.1753
      8 F         138.7606  140.8521  163.2475 F       1  UNL1       -0.2009
      9 S         141.1015  144.8647  160.9195 S.O2    1  UNL1        0.0769
     10 O         139.7128  145.4178  160.7942 O.2     1  UNL1       -0.1498
     11 O         142.4901  144.3116  161.0449 O.2     1  UNL1       -0.1498
     12 N         141.5021  145.5866  159.6672 N.pl3   1  UNL1       -0.1987
     13 H         142.1569  146.3205  159.7101 H       1  UNL1        0.1753
     14 C         140.9050  145.1903  158.3494 C.ar    1  UNL1        0.1503
     15 C         140.8348  143.7427  157.9628 C.ar    1  UNL1        0.0563
     16 C         140.2377  143.3465  156.6451 C.ar    1  UNL1        0.1036
     17 N         139.7108  144.3978  155.7140 N.ar    1  UNL1       -0.2223
     18 C         139.7811  145.8454  156.1005 C.ar    1  UNL1        0.2001
     19 N         140.3782  146.2417  157.4182 N.ar    1  UNL1       -0.2077
     20 O         139.4991  141.9769  165.9288 O.3     1  UNL1       -0.4764
     21 C         141.0309  140.0406  166.7377 C.3     1  UNL1        0.0799
     22 C         142.0823  139.5197  167.6720 C.3     1  UNL1        0.0095
     23 C         142.6536  140.4142  168.7319 C.3     1  UNL1        0.0006
     24 C         142.1733  141.8297  168.8575 C.3     1  UNL1        0.0037
     25 C         141.1218  142.3506  167.9231 C.3     1  UNL1        0.0439
     26 C         140.5506  141.4560  166.8633 C.3     1  UNL1        0.1714
     27 C         138.0201  138.7819  166.7079 C.3     1  UNL1        0.1533
     28 N         139.0758  138.5675  165.6640 N.ar    1  UNL1       -0.2527
     29 N         138.9328  137.7368  164.4232 N.ar    1  UNL1       -0.1679
     30 C         140.2284  137.8020  163.6700 C.ar    1  UNL1        0.1213
     31 C         141.1720  138.6729  164.4453 C.ar    1  UNL1        0.0369
     32 C         140.4596  139.1460  165.6777 C.ar    1  UNL1        0.0603
@<TRIPOS>BOND
     1    27    28    1
     2    28    29   ar
     3    29    30   ar
     4    30    31   ar
     5    31    32   ar
     6    21    32    1
     7    21    22    1
     8    22    23    1
     9    23    24    1
    10    24    25    1
    11    25    26    1
    12    26    20    1
    13    20     1    1
    14     1     2   ar
    15     2     3   ar
    16     3     4    1
    17     3     5   ar
    18     5     9    1
    19     9    10    2
    20     9    11    2
    21     9    12    1
    22    12    14    1
    23    14    15   ar
    24    15    16   ar
    25    16    17   ar
    26    17    18   ar
    27    18    19   ar
    28     5     6   ar
    29     6     7   ar
    30     7     8    1
    31    32    28   ar
    32    26    21    1
    33     7     1   ar
    34    19    14   ar
    35    12    13    1
@<TRIPOS>MOLECULE
*****
 32 35 0 0 0
SMALL
GASTEIGER

@<TRIPOS>ATOM
      1 C         140.2501  142.3299  164.7312 C.ar    1  UNL1        0.1679
      2 C         140.9266  143.6621  164.8640 C.ar    1  UNL1        0.0702
      3 C         141.1989  144.4900  163.6432 C.ar    1  UNL1        0.1620
      4 F         141.8754  145.8221  163.7759 F       1  UNL1       -0.2026
      5 C         140.7947  143.9856  162.2895 C.ar    1  UNL1        0.1549
      6 C         140.1183  142.6534  162.1568 C.ar    1  UNL1        0.0553
      7 C         139.8459  141.8256  163.3777 C.ar    1  UNL1        0.1753
      8 F         139.1694  140.4933  163.2449 F       1  UNL1       -0.2009
      9 S         141.0671  144.8134  161.0686 S.O2    1  UNL1        0.0769
     10 O         139.6388  145.2716  161.0607 O.2     1  UNL1       -0.1498
     11 O         142.4953  144.3552  161.0765 O.2     1  UNL1       -0.1498
     12 N         141.3394  145.6412  159.8478 N.pl3   1  UNL1       -0.1987
     13 H         141.9026  146.4460  159.9143 H       1  UNL1        0.1753
     14 C         140.7536  145.2429  158.5255 C.ar    1  UNL1        0.1503
     15 C         140.7443  143.8007  158.1132 C.ar    1  UNL1        0.0563
     16 C         140.1585  143.4025  156.7911 C.ar    1  UNL1        0.1036
     17 N         139.5820  144.4464  155.8812 N.ar    1  UNL1       -0.2223
     18 C         139.5913  145.8886  156.2935 C.ar    1  UNL1        0.2001
     19 N         140.1771  146.2868  157.6156 N.ar    1  UNL1       -0.2077
     20 O         139.9777  141.5021  165.9521 O.3     1  UNL1       -0.4764
     21 C         141.4626  140.6326  167.8987 C.3     1  UNL1        0.0799
     22 C         142.5083  139.6882  168.4131 C.3     1  UNL1        0.0095
     23 C         143.1148  138.6687  167.4951 C.3     1  UNL1        0.0006
     24 C         142.6757  138.5937  166.0628 C.3     1  UNL1        0.0037
     25 C         141.6300  139.5381  165.5484 C.3     1  UNL1        0.0439
     26 C         141.0235  140.5576  166.4664 C.3     1  UNL1        0.1714
     27 C         138.9317  140.1465  169.9008 C.3     1  UNL1        0.1533
     28 N         139.6927  141.4287  169.7370 N.ar    1  UNL1       -0.2527
     29 N         139.4240  142.7125  170.4646 N.ar    1  UNL1       -0.1679
     30 C         140.4212  143.7295  169.9941 C.ar    1  UNL1        0.1213
     31 C         141.3063  143.0742  168.9757 C.ar    1  UNL1        0.0369
     32 C         140.8560  141.6522  168.8168 C.ar    1  UNL1        0.0603
@<TRIPOS>BOND
     1    27    28    1
     2    28    29   ar
     3    29    30   ar
     4    30    31   ar
     5    31    32   ar
     6    21    32    1
     7    21    22    1
     8    22    23    1
     9    23    24    1
    10    24    25    1
    11    25    26    1
    12    26    20    1
    13    20     1    1
    14     1     2   ar
    15     2     3   ar
    16     3     4    1
    17     3     5   ar
    18     5     9    1
    19     9    10    2
    20     9    11    2
    21     9    12    1
    22    12    14    1
    23    14    15   ar
    24    15    16   ar
    25    16    17   ar
    26    17    18   ar
    27    18    19   ar
    28     5     6   ar
    29     6     7   ar
    30     7     8    1
    31    32    28   ar
    32    26    21    1
    33     7     1   ar
    34    19    14   ar
    35    12    13    1
@<TRIPOS>MOLECULE
*****
 32 35 0 0 0
SMALL
GASTEIGER

@<TRIPOS>ATOM
      1 C         139.7774  141.1825  164.5681 C.ar    1  UNL1        0.1679
      2 C         139.9869  142.5863  165.0536 C.ar    1  UNL1        0.0702
      3 C         140.2627  143.6862  164.0716 C.ar    1  UNL1        0.1620
      4 F         140.4722  145.0899  164.5570 F       1  UNL1       -0.2026
      5 C         140.3289  143.3823  162.6042 C.ar    1  UNL1        0.1549
      6 C         140.1194  141.9786  162.1187 C.ar    1  UNL1        0.0553
      7 C         139.8436  140.8787  163.1007 C.ar    1  UNL1        0.1753
      8 F         139.6341  139.4750  162.6152 F       1  UNL1       -0.2009
      9 S         140.6047  144.4822  161.6222 S.O2    1  UNL1        0.0769
     10 O         139.1840  144.9475  161.7444 O.2     1  UNL1       -0.1498
     11 O         142.0255  144.0168  161.5000 O.2     1  UNL1       -0.1498
     12 N         140.8805  145.5820  160.6403 N.pl3   1  UNL1       -0.1987
     13 H         140.9943  146.5073  160.9567 H       1  UNL1        0.1753
     14 C         140.9828  145.2721  159.1761 C.ar    1  UNL1        0.1503
     15 C         140.0084  144.3256  158.5400 C.ar    1  UNL1        0.0563
     16 C         140.1107  144.0157  157.0760 C.ar    1  UNL1        0.1036
     17 N         141.1874  144.6523  156.2481 N.ar    1  UNL1       -0.2223
     18 C         142.1619  145.5987  156.8842 C.ar    1  UNL1        0.2001
     19 N         142.0595  145.9086  158.3482 N.ar    1  UNL1       -0.2077
     20 O         139.5016  140.0827  165.5500 O.3     1  UNL1       -0.4764
     21 C         141.8174  139.5260  166.5880 C.3     1  UNL1        0.0799
     22 C         142.6945  139.3595  167.7934 C.3     1  UNL1        0.0095
     23 C         142.1329  139.5830  169.1662 C.3     1  UNL1        0.0006
     24 C         140.6942  139.9731  169.3336 C.3     1  UNL1        0.0037
     25 C         139.8171  140.1397  168.1283 C.3     1  UNL1        0.0439
     26 C         140.3787  139.9161  166.7555 C.3     1  UNL1        0.1714
     27 C         141.0646  137.0618  164.5854 C.3     1  UNL1        0.1533
     28 N         142.0329  138.1698  164.2947 N.ar    1  UNL1       -0.2527
     29 N         142.8252  138.3397  163.0324 N.ar    1  UNL1       -0.1679
     30 C         143.6610  139.5774  163.1727 C.ar    1  UNL1        0.1213
     31 C         143.3852  140.1724  164.5217 C.ar    1  UNL1        0.0369
     32 C         142.3790  139.3025  165.2151 C.ar    1  UNL1        0.0603
@<TRIPOS>BOND
     1    27    28    1
     2    28    29   ar
     3    29    30   ar
     4    30    31   ar
     5    31    32   ar
     6    21    32    1
     7    21    22    1
     8    22    23    1
     9    23    24    1
    10    24    25    1
    11    25    26    1
    12    26    20    1
    13    20     1    1
    14     1     2   ar
    15     2     3   ar
    16     3     4    1
    17     3     5   ar
    18     5     9    1
    19     9    10    2
    20     9    11    2
    21     9    12    1
    22    12    14    1
    23    14    15   ar
    24    15    16   ar
    25    16    17   ar
    26    17    18   ar
    27    18    19   ar
    28     5     6   ar
    29     6     7   ar
    30     7     8    1
    31    32    28   ar
    32    26    21    1
    33     7     1   ar
    34    19    14   ar
    35    12    13    1
@<TRIPOS>MOLECULE
*****
 32 35 0 0 0
SMALL
GASTEIGER

@<TRIPOS>ATOM
      1 C         139.8859  141.9923  165.5771 C.ar    1  UNL1        0.1679
      2 C         139.4817  143.4336  165.4804 C.ar    1  UNL1        0.0702
      3 C         139.3919  144.0989  164.1390 C.ar    1  UNL1        0.1620
      4 F         138.9877  145.5402  164.0422 F       1  UNL1       -0.2026
      5 C         139.7063  143.3229  162.8944 C.ar    1  UNL1        0.1549
      6 C         140.1105  141.8817  162.9911 C.ar    1  UNL1        0.0553
      7 C         140.2003  141.2164  164.3325 C.ar    1  UNL1        0.1753
      8 F         140.6045  139.7750  164.4293 F       1  UNL1       -0.2009
      9 S         139.6166  143.9883  161.5530 S.O2    1  UNL1        0.0769
     10 O         138.2900  143.3297  161.3151 O.2     1  UNL1       -0.1498
     11 O         140.9431  144.6468  161.7908 O.2     1  UNL1       -0.1498
     12 N         139.5268  144.6536  160.2116 N.pl3   1  UNL1       -0.1987
     13 H         138.7849  145.2708  160.0169 H       1  UNL1        0.1753
     14 C         140.5674  144.3785  159.1668 C.ar    1  UNL1        0.1503
     15 C         140.9229  142.9640  158.8166 C.ar    1  UNL1        0.0563
     16 C         141.9635  142.6889  157.7719 C.ar    1  UNL1        0.1036
     17 N         142.6485  143.8284  157.0773 N.ar    1  UNL1       -0.2223
     18 C         142.2930  145.2429  157.4276 C.ar    1  UNL1        0.2001
     19 N         141.2524  145.5179  158.4723 N.ar    1  UNL1       -0.2077
     20 O         139.9757  141.3270  166.9185 O.3     1  UNL1       -0.4764
     21 C         142.3321  141.4869  168.0009 C.3     1  UNL1        0.0799
     22 C         143.2424  142.0440  169.0549 C.3     1  UNL1        0.0095
     23 C         142.7065  142.9982  170.0806 C.3     1  UNL1        0.0006
     24 C         141.2603  143.3954  170.0523 C.3     1  UNL1        0.0037
     25 C         140.3501  142.8383  168.9983 C.3     1  UNL1        0.0439
     26 C         140.8860  141.8841  167.9726 C.3     1  UNL1        0.1714
     27 C         143.6696  142.3006  165.1375 C.3     1  UNL1        0.1533
     28 N         143.4828  140.9067  165.6589 N.ar    1  UNL1       -0.2527
     29 N         143.8779  139.6420  164.9558 N.ar    1  UNL1       -0.1679
     30 C         143.5073  138.4863  165.8373 C.ar    1  UNL1        0.1213
     31 C         142.8832  139.0368  167.0853 C.ar    1  UNL1        0.0369
     32 C         142.8680  140.5326  166.9750 C.ar    1  UNL1        0.0603
@<TRIPOS>BOND
     1    27    28    1
     2    28    29   ar
     3    29    30   ar
     4    30    31   ar
     5    31    32   ar
     6    21    32    1
     7    21    22    1
     8    22    23    1
     9    23    24    1
    10    24    25    1
    11    25    26    1
    12    26    20    1
    13    20     1    1
    14     1     2   ar
    15     2     3   ar
    16     3     4    1
    17     3     5   ar
    18     5     9    1
    19     9    10    2
    20     9    11    2
    21     9    12    1
    22    12    14    1
    23    14    15   ar
    24    15    16   ar
    25    16    17   ar
    26    17    18   ar
    27    18    19   ar
    28     5     6   ar
    29     6     7   ar
    30     7     8    1
    31    32    28   ar
    32    26    21    1
    33     7     1   ar
    34    19    14   ar
    35    12    13    1
@<TRIPOS>MOLECULE
*****
 32 35 0 0 0
SMALL
GASTEIGER

@<TRIPOS>ATOM
      1 C         140.8996  142.7390  165.3055 C.ar    1  UNL1        0.1679
      2 C         139.5301  143.3399  165.1885 C.ar    1  UNL1        0.0702
      3 C         138.8458  143.3930  163.8547 C.ar    1  UNL1        0.1620
      4 F         137.4765  143.9939  163.7377 F       1  UNL1       -0.2026
      5 C         139.5310  142.8452  162.6379 C.ar    1  UNL1        0.1549
      6 C         140.9004  142.2443  162.7550 C.ar    1  UNL1        0.0553
      7 C         141.5847  142.1912  164.0887 C.ar    1  UNL1        0.1753
      8 F         142.9541  141.5903  164.2057 F       1  UNL1       -0.2009
      9 S         138.8467  142.8982  161.3042 S.O2    1  UNL1        0.0769
     10 O         138.4345  141.4643  161.4586 O.2     1  UNL1       -0.1498
     11 O         139.2589  144.3322  161.1498 O.2     1  UNL1       -0.1498
     12 N         138.1625  142.9513  159.9704 N.pl3   1  UNL1       -0.1987
     13 H         137.3435  143.4861  159.8582 H       1  UNL1        0.1753
     14 C         138.7260  142.1896  158.8075 C.ar    1  UNL1        0.1503
     15 C         140.1077  142.4947  158.3098 C.ar    1  UNL1        0.0563
     16 C         140.6712  141.7330  157.1469 C.ar    1  UNL1        0.1036
     17 N         139.8530  140.6662  156.4818 N.ar    1  UNL1       -0.2223
     18 C         138.4713  140.3611  156.9795 C.ar    1  UNL1        0.2001
     19 N         137.9078  141.1228  158.1424 N.ar    1  UNL1       -0.2077
     20 O         141.5838  142.6859  166.6393 O.3     1  UNL1       -0.4764
     21 C         140.5260  140.6624  167.8787 C.3     1  UNL1        0.0799
     22 C         139.8070  140.0992  169.0686 C.3     1  UNL1        0.0095
     23 C         139.4268  140.9964  170.2089 C.3     1  UNL1        0.0006
     24 C         139.7656  142.4568  170.1594 C.3     1  UNL1        0.0037
     25 C         140.4846  143.0200  168.9695 C.3     1  UNL1        0.0439
     26 C         140.8648  142.1228  167.8292 C.3     1  UNL1        0.1714
     27 C         138.5493  139.6645  165.4815 C.3     1  UNL1        0.1533
     28 N         139.9977  139.3065  165.6365 N.ar    1  UNL1       -0.2527
     29 N         140.7918  138.4270  164.7168 N.ar    1  UNL1       -0.1679
     30 C         142.1912  138.3420  165.2502 C.ar    1  UNL1        0.1213
     31 C         142.2619  139.1690  166.4996 C.ar    1  UNL1        0.0369
     32 C         140.9063  139.7651  166.7383 C.ar    1  UNL1        0.0603
@<TRIPOS>BOND
     1    27    28    1
     2    28    29   ar
     3    29    30   ar
     4    30    31   ar
     5    31    32   ar
     6    21    32    1
     7    21    22    1
     8    22    23    1
     9    23    24    1
    10    24    25    1
    11    25    26    1
    12    26    20    1
    13    20     1    1
    14     1     2   ar
    15     2     3   ar
    16     3     4    1
    17     3     5   ar
    18     5     9    1
    19     9    10    2
    20     9    11    2
    21     9    12    1
    22    12    14    1
    23    14    15   ar
    24    15    16   ar
    25    16    17   ar
    26    17    18   ar
    27    18    19   ar
    28     5     6   ar
    29     6     7   ar
    30     7     8    1
    31    32    28   ar
    32    26    21    1
    33     7     1   ar
    34    19    14   ar
    35    12    13    1
