@<TRIPOS>MOLECULE
*****
 35 38 0 0 0
SMALL
GASTEIGER

@<TRIPOS>ATOM
      1 C         138.1826  141.3227  161.7875 C.ar    1  UNL1        0.1417
      2 C         138.1618  140.4280  162.9913 C.ar    1  UNL1        0.0743
      3 C         138.7542  139.0522  162.9135 C.ar    1  UNL1        0.1485
      4 C         139.3674  138.5710  161.6319 C.ar    1  UNL1        0.0422
      5 C         139.3882  139.4657  160.4282 C.ar    1  UNL1        0.0597
      6 C         138.7958  140.8416  160.5060 C.ar    1  UNL1        0.0416
      7 C         140.0014  138.9846  159.1466 C.2     1  UNL1        0.2508
      8 O         139.1370  138.7489  157.9436 O.2     1  UNL1       -0.2698
      9 N         141.4791  138.7391  159.0679 N.am    1  UNL1       -0.2644
     10 H         142.0465  138.8937  159.8575 H       1  UNL1        0.1566
     11 C         142.0923  138.2579  157.7863 C.ar    1  UNL1        0.1557
     12 C         142.1014  138.9973  156.4812 C.ar    1  UNL1        0.0564
     13 C         142.8188  138.1493  155.4730 C.ar    1  UNL1        0.0981
     14 N         143.2531  136.8859  156.1552 N.ar    1  UNL1       -0.2462
     15 C         144.0044  135.7541  155.5193 C.3     1  UNL1        0.1538
     16 N         142.8041  136.9530  157.5848 N.ar    1  UNL1       -0.1539
     17 O         137.5901  142.6986  161.8653 O.3     1  UNL1       -0.4765
     18 C         137.7782  144.0048  164.1033 C.3     1  UNL1        0.0500
     19 C         138.2510  143.7535  162.7021 C.3     1  UNL1        0.1951
     20 C         139.3849  144.5573  162.1378 C.3     1  UNL1        0.1807
     21 O         139.1153  145.8841  161.4923 O.3     1  UNL1       -0.3785
     22 H         138.5933  145.7511  160.6856 H       1  UNL1        0.2106
     23 O         138.7334  138.1575  164.1173 O.3     1  UNL1       -0.4534
     24 C         138.9422  138.7360  165.4854 C.ar    1  UNL1        0.1453
     25 C         140.2325  139.4243  165.8197 C.ar    1  UNL1        0.0376
     26 C         140.4413  140.0028  167.1878 C.ar    1  UNL1        0.0076
     27 C         139.3600  139.8931  168.2216 C.ar    1  UNL1        0.0538
     28 C         138.0698  139.2049  167.8873 C.ar    1  UNL1        0.0076
     29 C         137.8610  138.6263  166.5192 C.ar    1  UNL1        0.0376
     30 C         139.5688  140.4716  169.5897 C.2     1  UNL1        0.2490
     31 O         139.3679  139.6154  170.8047 O.2     1  UNL1       -0.2699
     32 N         139.9786  141.9065  169.7427 N.am    1  UNL1       -0.2760
     33 C         140.2652  143.0344  168.7963 C.3     1  UNL1        0.0955
     34 C         140.5582  143.9356  169.9591 C.3     1  UNL1        0.0430
     35 C         140.2716  142.8076  170.9055 C.3     1  UNL1        0.0955
@<TRIPOS>BOND
     1    19    18    1
     2    19    20    1
     3    20    21    1
     4    19    17    1
     5    17     1    1
     6     1     2   ar
     7     2     3   ar
     8     3    23    1
     9    23    24    1
    10    24    25   ar
    11    25    26   ar
    12    26    27   ar
    13    27    30    1
    14    30    31    2
    15    30    32   am
    16    32    33    1
    17    33    34    1
    18    34    35    1
    19    27    28   ar
    20    28    29   ar
    21     3     4   ar
    22     4     5   ar
    23     5     7    1
    24     7     8    2
    25     7     9   am
    26     9    11    1
    27    11    12   ar
    28    12    13   ar
    29    13    14   ar
    30    14    15    1
    31    14    16   ar
    32     5     6   ar
    33     6     1   ar
    34    29    24   ar
    35    16    11   ar
    36    35    32    1
    37    21    22    1
    38     9    10    1
@<TRIPOS>MOLECULE
*****
 35 38 0 0 0
SMALL
GASTEIGER

@<TRIPOS>ATOM
      1 C         137.9782  142.2155  162.3531 C.ar    1  UNL1        0.1417
      2 C         138.1213  141.1706  163.4197 C.ar    1  UNL1        0.0743
      3 C         138.4057  139.7472  163.0418 C.ar    1  UNL1        0.1485
      4 C         138.5470  139.3686  161.5972 C.ar    1  UNL1        0.0422
      5 C         138.4039  140.4135  160.5307 C.ar    1  UNL1        0.0597
      6 C         138.1195  141.8370  160.9086 C.ar    1  UNL1        0.0416
      7 C         138.5452  140.0350  159.0861 C.2     1  UNL1        0.2508
      8 O         137.4615  140.3847  158.1097 O.2     1  UNL1       -0.2698
      9 N         139.7702  139.3068  158.6179 N.am    1  UNL1       -0.2644
     10 H         140.4814  139.0773  159.2588 H       1  UNL1        0.1566
     11 C         139.9115  138.9283  157.1733 C.ar    1  UNL1        0.1557
     12 C         140.9448  139.4535  156.2213 C.ar    1  UNL1        0.0564
     13 C         140.7163  138.8079  154.8867 C.ar    1  UNL1        0.0981
     14 N         139.5417  137.8837  155.0140 N.ar    1  UNL1       -0.2462
     15 C         138.9656  137.0343  153.9202 C.3     1  UNL1        0.1538
     16 N         139.0443  137.9581  156.4272 N.ar    1  UNL1       -0.1539
     17 O         137.6938  143.6390  162.7311 O.3     1  UNL1       -0.4765
     18 C         139.1368  144.7984  164.5541 C.3     1  UNL1        0.0500
     19 C         138.8207  144.5543  163.1082 C.3     1  UNL1        0.1951
     20 C         139.6315  145.2256  162.0395 C.3     1  UNL1        0.1807
     21 O         140.1885  146.5988  162.2719 O.3     1  UNL1       -0.3785
     22 H         139.4599  147.2349  162.3466 H       1  UNL1        0.2106
     23 O         138.5488  138.7022  164.1084 O.3     1  UNL1       -0.4534
     24 C         138.9363  139.1008  165.5016 C.ar    1  UNL1        0.1453
     25 C         140.3316  139.5726  165.7860 C.ar    1  UNL1        0.0376
     26 C         140.7191  139.9712  167.1792 C.ar    1  UNL1        0.0076
     27 C         139.7114  139.8980  168.2879 C.ar    1  UNL1        0.0538
     28 C         138.3162  139.4263  168.0035 C.ar    1  UNL1        0.0076
     29 C         137.9287  139.0277  166.6103 C.ar    1  UNL1        0.0376
     30 C         140.0989  140.2966  169.6811 C.2     1  UNL1        0.2490
     31 O         139.5311  139.5593  170.8575 O.2     1  UNL1       -0.2699
     32 N         141.0543  141.4325  169.8979 N.am    1  UNL1       -0.2760
     33 C         141.8035  142.3740  169.0021 C.3     1  UNL1        0.0955
     34 C         142.4054  143.0389  170.2045 C.3     1  UNL1        0.0430
     35 C         141.6563  142.0975  171.1002 C.3     1  UNL1        0.0955
@<TRIPOS>BOND
     1    19    18    1
     2    19    20    1
     3    20    21    1
     4    19    17    1
     5    17     1    1
     6     1     2   ar
     7     2     3   ar
     8     3    23    1
     9    23    24    1
    10    24    25   ar
    11    25    26   ar
    12    26    27   ar
    13    27    30    1
    14    30    31    2
    15    30    32   am
    16    32    33    1
    17    33    34    1
    18    34    35    1
    19    27    28   ar
    20    28    29   ar
    21     3     4   ar
    22     4     5   ar
    23     5     7    1
    24     7     8    2
    25     7     9   am
    26     9    11    1
    27    11    12   ar
    28    12    13   ar
    29    13    14   ar
    30    14    15    1
    31    14    16   ar
    32     5     6   ar
    33     6     1   ar
    34    29    24   ar
    35    16    11   ar
    36    35    32    1
    37    21    22    1
    38     9    10    1
@<TRIPOS>MOLECULE
*****
 35 38 0 0 0
SMALL
GASTEIGER

@<TRIPOS>ATOM
      1 C         137.9234  142.6118  162.0580 C.ar    1  UNL1        0.1417
      2 C         138.0129  141.5546  163.1182 C.ar    1  UNL1        0.0743
      3 C         138.2038  140.1181  162.7308 C.ar    1  UNL1        0.1485
      4 C         138.3053  139.7389  161.2832 C.ar    1  UNL1        0.0422
      5 C         138.2158  140.7961  160.2229 C.ar    1  UNL1        0.0597
      6 C         138.0249  142.2326  160.6103 C.ar    1  UNL1        0.0416
      7 C         138.3173  140.4169  158.7751 C.2     1  UNL1        0.2508
      8 O         139.0461  139.1680  158.3763 O.2     1  UNL1       -0.2698
      9 N         137.6898  141.2865  157.7263 N.am    1  UNL1       -0.2644
     10 H         137.2115  142.1061  157.9881 H       1  UNL1        0.1566
     11 C         137.7913  140.9073  156.2785 C.ar    1  UNL1        0.1557
     12 C         138.6812  141.5532  155.2583 C.ar    1  UNL1        0.0564
     13 C         138.4606  140.8607  153.9460 C.ar    1  UNL1        0.0981
     14 N         137.4344  139.7868  154.1554 N.ar    1  UNL1       -0.2462
     15 C         136.9133  138.8489  153.1072 C.3     1  UNL1        0.1538
     16 N         137.0208  139.8156  155.5969 N.ar    1  UNL1       -0.1539
     17 O         137.7325  144.0483  162.4454 O.3     1  UNL1       -0.4765
     18 C         139.2505  144.7627  164.4291 C.3     1  UNL1        0.0500
     19 C         138.8895  144.8423  162.9754 C.3     1  UNL1        0.1951
     20 C         139.6855  145.7160  162.0517 C.3     1  UNL1        0.1807
     21 O         138.9850  146.6898  161.1511 O.3     1  UNL1       -0.3785
     22 H         138.4556  146.2042  160.4993 H       1  UNL1        0.2106
     23 O         138.2932  139.0609  163.7912 O.3     1  UNL1       -0.4534
     24 C         138.6598  139.4370  165.1963 C.ar    1  UNL1        0.1453
     25 C         137.9276  138.8227  166.3524 C.ar    1  UNL1        0.0376
     26 C         138.2941  139.1988  167.7575 C.ar    1  UNL1        0.0076
     27 C         139.3928  140.1893  168.0064 C.ar    1  UNL1        0.0538
     28 C         140.1249  140.8036  166.8503 C.ar    1  UNL1        0.0076
     29 C         139.7583  140.4275  165.4452 C.ar    1  UNL1        0.0376
     30 C         139.7593  140.5654  169.4114 C.2     1  UNL1        0.2490
     31 O         138.7286  141.1674  170.3198 O.2     1  UNL1       -0.2699
     32 N         141.1566  140.3396  169.9081 N.am    1  UNL1       -0.2760
     33 C         142.4158  139.7806  169.3148 C.3     1  UNL1        0.0955
     34 C         143.1326  140.0202  170.6105 C.3     1  UNL1        0.0430
     35 C         141.8734  140.5792  171.2038 C.3     1  UNL1        0.0955
@<TRIPOS>BOND
     1    19    18    1
     2    19    20    1
     3    20    21    1
     4    19    17    1
     5    17     1    1
     6     1     2   ar
     7     2     3   ar
     8     3    23    1
     9    23    24    1
    10    24    25   ar
    11    25    26   ar
    12    26    27   ar
    13    27    30    1
    14    30    31    2
    15    30    32   am
    16    32    33    1
    17    33    34    1
    18    34    35    1
    19    27    28   ar
    20    28    29   ar
    21     3     4   ar
    22     4     5   ar
    23     5     7    1
    24     7     8    2
    25     7     9   am
    26     9    11    1
    27    11    12   ar
    28    12    13   ar
    29    13    14   ar
    30    14    15    1
    31    14    16   ar
    32     5     6   ar
    33     6     1   ar
    34    29    24   ar
    35    16    11   ar
    36    35    32    1
    37    21    22    1
    38     9    10    1
@<TRIPOS>MOLECULE
*****
 35 38 0 0 0
SMALL
GASTEIGER

@<TRIPOS>ATOM
      1 C         138.4305  142.0273  161.7826 C.ar    1  UNL1        0.1417
      2 C         138.2720  141.0424  162.9027 C.ar    1  UNL1        0.0743
      3 C         138.8349  139.6584  162.7697 C.ar    1  UNL1        0.1485
      4 C         139.5564  139.2593  161.5166 C.ar    1  UNL1        0.0422
      5 C         139.7149  140.2443  160.3966 C.ar    1  UNL1        0.0597
      6 C         139.1520  141.6283  160.5295 C.ar    1  UNL1        0.0416
      7 C         140.4365  139.8453  159.1434 C.2     1  UNL1        0.2508
      8 O         140.5295  140.8044  157.9938 O.2     1  UNL1       -0.2698
      9 N         141.0649  138.4873  159.0399 N.am    1  UNL1       -0.2644
     10 H         141.0039  137.8578  159.7944 H       1  UNL1        0.1566
     11 C         141.7864  138.0883  157.7867 C.ar    1  UNL1        0.1557
     12 C         141.2930  137.1155  156.7571 C.ar    1  UNL1        0.0564
     13 C         142.3296  137.0180  155.6772 C.ar    1  UNL1        0.0981
     14 N         143.4637  137.9306  156.0396 N.ar    1  UNL1       -0.2462
     15 C         144.7138  138.1442  155.2388 C.3     1  UNL1        0.1538
     16 N         143.1279  138.5921  157.3433 N.ar    1  UNL1       -0.1539
     17 O         137.8676  143.4113  161.9155 O.3     1  UNL1       -0.4765
     18 C         138.4027  144.5160  164.2053 C.3     1  UNL1        0.0500
     19 C         138.5993  144.4445  162.7200 C.3     1  UNL1        0.1951
     20 C         139.5275  145.4062  162.0391 C.3     1  UNL1        0.1807
     21 O         138.9723  146.5779  161.2849 O.3     1  UNL1       -0.3785
     22 H         138.4744  146.2605  160.5153 H       1  UNL1        0.2106
     23 O         138.6763  138.6734  163.8899 O.3     1  UNL1       -0.4534
     24 C         138.9968  139.0805  165.2975 C.ar    1  UNL1        0.1453
     25 C         137.9437  138.9918  166.3621 C.ar    1  UNL1        0.0376
     26 C         138.2641  139.3990  167.7698 C.ar    1  UNL1        0.0076
     27 C         139.6376  139.8948  168.1129 C.ar    1  UNL1        0.0538
     28 C         140.6906  139.9834  167.0484 C.ar    1  UNL1        0.0076
     29 C         140.3702  139.5763  165.6407 C.ar    1  UNL1        0.0376
     30 C         139.9581  140.3019  169.5206 C.2     1  UNL1        0.2490
     31 O         139.3723  139.5413  170.6731 O.2     1  UNL1       -0.2699
     32 N         140.8643  141.4697  169.7757 N.am    1  UNL1       -0.2760
     33 C         141.6135  142.4398  168.9110 C.3     1  UNL1        0.0955
     34 C         142.1459  143.1212  170.1366 C.3     1  UNL1        0.0430
     35 C         141.3968  142.1511  171.0014 C.3     1  UNL1        0.0955
@<TRIPOS>BOND
     1    19    18    1
     2    19    20    1
     3    20    21    1
     4    19    17    1
     5    17     1    1
     6     1     2   ar
     7     2     3   ar
     8     3    23    1
     9    23    24    1
    10    24    25   ar
    11    25    26   ar
    12    26    27   ar
    13    27    30    1
    14    30    31    2
    15    30    32   am
    16    32    33    1
    17    33    34    1
    18    34    35    1
    19    27    28   ar
    20    28    29   ar
    21     3     4   ar
    22     4     5   ar
    23     5     7    1
    24     7     8    2
    25     7     9   am
    26     9    11    1
    27    11    12   ar
    28    12    13   ar
    29    13    14   ar
    30    14    15    1
    31    14    16   ar
    32     5     6   ar
    33     6     1   ar
    34    29    24   ar
    35    16    11   ar
    36    35    32    1
    37    21    22    1
    38     9    10    1
@<TRIPOS>MOLECULE
*****
 35 38 0 0 0
SMALL
GASTEIGER

@<TRIPOS>ATOM
      1 C         141.8714  140.6813  161.1947 C.ar    1  UNL1        0.1417
      2 C         141.6836  139.7782  162.3775 C.ar    1  UNL1        0.0743
      3 C         140.3764  139.0714  162.5815 C.ar    1  UNL1        0.1485
      4 C         139.2569  139.2677  161.6026 C.ar    1  UNL1        0.0422
      5 C         139.4447  140.1709  160.4198 C.ar    1  UNL1        0.0597
      6 C         140.7519  140.8776  160.2158 C.ar    1  UNL1        0.0416
      7 C         138.3252  140.3672  159.4409 C.2     1  UNL1        0.2508
      8 O         136.9698  139.7913  159.7261 O.2     1  UNL1       -0.2698
      9 N         138.5611  141.1395  158.1768 N.am    1  UNL1       -0.2644
     10 H         139.4506  141.5175  157.9896 H       1  UNL1        0.1566
     11 C         137.4416  141.3359  157.1979 C.ar    1  UNL1        0.1557
     12 C         137.2045  142.5597  156.3635 C.ar    1  UNL1        0.0564
     13 C         135.9790  142.3231  155.5314 C.ar    1  UNL1        0.0981
     14 N         135.4588  140.9531  155.8515 N.ar    1  UNL1       -0.2462
     15 C         134.2474  140.3068  155.2478 C.3     1  UNL1        0.1538
     16 N         136.3627  140.3430  156.8815 N.ar    1  UNL1       -0.1539
     17 O         143.1786  141.3881  160.9907 O.3     1  UNL1       -0.4765
     18 C         143.5376  143.1820  162.8354 C.3     1  UNL1        0.0500
     19 C         143.9469  141.9000  162.1729 C.3     1  UNL1        0.1951
     20 C         145.1246  141.1298  162.6927 C.3     1  UNL1        0.1807
     21 O         146.2910  141.8575  163.2926 O.3     1  UNL1       -0.3785
     22 H         146.7311  142.3838  162.6069 H       1  UNL1        0.2106
     23 O         140.1886  138.1683  163.7643 O.3     1  UNL1       -0.4534
     24 C         140.0137  138.7534  165.1344 C.ar    1  UNL1        0.1453
     25 C         141.2002  139.2939  165.8762 C.ar    1  UNL1        0.0376
     26 C         141.0253  139.8790  167.2462 C.ar    1  UNL1        0.0076
     27 C         139.6639  139.9236  167.8745 C.ar    1  UNL1        0.0538
     28 C         138.4775  139.3832  167.1327 C.ar    1  UNL1        0.0076
     29 C         138.6524  138.7980  165.7627 C.ar    1  UNL1        0.0376
     30 C         139.4890  140.5088  169.2445 C.2     1  UNL1        0.2490
     31 O         138.9001  139.6775  170.3455 O.2     1  UNL1       -0.2699
     32 N         139.9030  141.9252  169.5136 N.am    1  UNL1       -0.2760
     33 C         140.5076  143.0273  168.6951 C.3     1  UNL1        0.0955
     34 C         140.4885  143.9283  169.8941 C.3     1  UNL1        0.0430
     35 C         139.8839  142.8263  170.7127 C.3     1  UNL1        0.0955
@<TRIPOS>BOND
     1    19    18    1
     2    19    20    1
     3    20    21    1
     4    19    17    1
     5    17     1    1
     6     1     2   ar
     7     2     3   ar
     8     3    23    1
     9    23    24    1
    10    24    25   ar
    11    25    26   ar
    12    26    27   ar
    13    27    30    1
    14    30    31    2
    15    30    32   am
    16    32    33    1
    17    33    34    1
    18    34    35    1
    19    27    28   ar
    20    28    29   ar
    21     3     4   ar
    22     4     5   ar
    23     5     7    1
    24     7     8    2
    25     7     9   am
    26     9    11    1
    27    11    12   ar
    28    12    13   ar
    29    13    14   ar
    30    14    15    1
    31    14    16   ar
    32     5     6   ar
    33     6     1   ar
    34    29    24   ar
    35    16    11   ar
    36    35    32    1
    37    21    22    1
    38     9    10    1
@<TRIPOS>MOLECULE
*****
 35 38 0 0 0
SMALL
GASTEIGER

@<TRIPOS>ATOM
      1 C         143.8418  141.4327  162.1391 C.ar    1  UNL1        0.1417
      2 C         143.6756  140.5511  163.3412 C.ar    1  UNL1        0.0743
      3 C         143.1320  139.1620  163.1832 C.ar    1  UNL1        0.1485
      4 C         142.7546  138.6545  161.8231 C.ar    1  UNL1        0.0422
      5 C         142.9208  139.5361  160.6210 C.ar    1  UNL1        0.0597
      6 C         143.4644  140.9252  160.7790 C.ar    1  UNL1        0.0416
      7 C         142.5434  139.0286  159.2608 C.2     1  UNL1        0.2508
      8 O         141.7914  139.9141  158.3120 O.2     1  UNL1       -0.2698
      9 N         142.9181  137.6356  158.8495 N.am    1  UNL1       -0.2644
     10 H         143.4117  137.0544  159.4722 H       1  UNL1        0.1566
     11 C         142.5407  137.1281  157.4892 C.ar    1  UNL1        0.1557
     12 C         143.4466  136.4096  156.5337 C.ar    1  UNL1        0.0564
     13 C         142.6570  136.0874  155.2997 C.ar    1  UNL1        0.0981
     14 N         141.2630  136.6069  155.4926 N.ar    1  UNL1       -0.2462
     15 C         140.1385  136.5017  154.5057 C.3     1  UNL1        0.1538
     16 N         141.1912  137.2501  156.8458 N.ar    1  UNL1       -0.1539
     17 O         144.3854  142.8217  162.2971 O.3     1  UNL1       -0.4765
     18 C         143.8411  144.8322  163.8501 C.3     1  UNL1        0.0500
     19 C         143.4736  143.9427  162.6995 C.3     1  UNL1        0.1951
     20 C         142.1943  144.1743  161.9514 C.3     1  UNL1        0.1807
     21 O         142.1633  145.1311  160.7967 O.3     1  UNL1       -0.3785
     22 H         142.3285  146.0313  161.1181 H       1  UNL1        0.2106
     23 O         142.9658  138.2805  164.3855 O.3     1  UNL1       -0.4534
     24 C         142.3262  138.8217  165.6297 C.ar    1  UNL1        0.1453
     25 C         143.1329  138.9648  166.8863 C.ar    1  UNL1        0.0376
     26 C         142.4933  139.5060  168.1305 C.ar    1  UNL1        0.0076
     27 C         141.0471  139.9042  168.1181 C.ar    1  UNL1        0.0538
     28 C         140.2406  139.7611  166.8616 C.ar    1  UNL1        0.0076
     29 C         140.8801  139.2198  165.6174 C.ar    1  UNL1        0.0376
     30 C         140.4076  140.4454  169.3623 C.2     1  UNL1        0.2490
     31 O         139.7918  139.5076  170.3579 O.2     1  UNL1       -0.2699
     32 N         140.3839  141.9245  169.6109 N.am    1  UNL1       -0.2760
     33 C         140.8796  143.1323  168.8723 C.3     1  UNL1        0.0955
     34 C         140.3503  144.0162  169.9625 C.3     1  UNL1        0.0430
     35 C         139.8546  142.8084  170.7011 C.3     1  UNL1        0.0955
@<TRIPOS>BOND
     1    19    18    1
     2    19    20    1
     3    20    21    1
     4    19    17    1
     5    17     1    1
     6     1     2   ar
     7     2     3   ar
     8     3    23    1
     9    23    24    1
    10    24    25   ar
    11    25    26   ar
    12    26    27   ar
    13    27    30    1
    14    30    31    2
    15    30    32   am
    16    32    33    1
    17    33    34    1
    18    34    35    1
    19    27    28   ar
    20    28    29   ar
    21     3     4   ar
    22     4     5   ar
    23     5     7    1
    24     7     8    2
    25     7     9   am
    26     9    11    1
    27    11    12   ar
    28    12    13   ar
    29    13    14   ar
    30    14    15    1
    31    14    16   ar
    32     5     6   ar
    33     6     1   ar
    34    29    24   ar
    35    16    11   ar
    36    35    32    1
    37    21    22    1
    38     9    10    1
@<TRIPOS>MOLECULE
*****
 35 38 0 0 0
SMALL
GASTEIGER

@<TRIPOS>ATOM
      1 C         140.4711  144.6879  162.1828 C.ar    1  UNL1        0.1417
      2 C         141.1415  143.3531  162.3199 C.ar    1  UNL1        0.0743
      3 C         141.8487  142.7448  161.1453 C.ar    1  UNL1        0.1485
      4 C         141.8855  143.4712  159.8335 C.ar    1  UNL1        0.0422
      5 C         141.2152  144.8060  159.6964 C.ar    1  UNL1        0.0597
      6 C         140.5079  145.4144  160.8710 C.ar    1  UNL1        0.0416
      7 C         141.2520  145.5326  158.3845 C.2     1  UNL1        0.2508
      8 O         142.5164  146.2012  157.9327 O.2     1  UNL1       -0.2698
      9 N         140.0244  145.5905  157.5246 N.am    1  UNL1       -0.2644
     10 H         139.1945  145.1517  157.8211 H       1  UNL1        0.1566
     11 C         140.0612  146.3171  156.2127 C.ar    1  UNL1        0.1557
     12 C         139.2708  147.5425  155.8612 C.ar    1  UNL1        0.0564
     13 C         139.6160  147.9286  154.4533 C.ar    1  UNL1        0.0981
     14 N         140.6197  146.9416  153.9349 N.ar    1  UNL1       -0.2462
     15 C         141.2393  146.9493  152.5690 C.3     1  UNL1        0.1538
     16 N         140.8948  145.9457  155.0223 N.ar    1  UNL1       -0.1539
     17 O         139.7639  145.2962  163.3574 O.3     1  UNL1       -0.4765
     18 C         138.7186  144.6251  165.6393 C.3     1  UNL1        0.0500
     19 C         138.7840  144.4806  164.1477 C.3     1  UNL1        0.1951
     20 C         137.8696  143.5204  163.4463 C.3     1  UNL1        0.1807
     21 O         137.3709  143.8316  162.0663 O.3     1  UNL1       -0.3785
     22 H         136.7940  144.6107  162.0991 H       1  UNL1        0.2106
     23 O         142.5190  141.4099  161.2825 O.3     1  UNL1       -0.4534
     24 C         142.6951  140.7950  162.6393 C.ar    1  UNL1        0.1453
     25 C         143.8987  141.1363  163.4670 C.ar    1  UNL1        0.0376
     26 C         144.0747  140.5214  164.8238 C.ar    1  UNL1        0.0076
     27 C         143.0472  139.5651  165.3529 C.ar    1  UNL1        0.0538
     28 C         141.8437  139.2239  164.5252 C.ar    1  UNL1        0.0076
     29 C         141.6676  139.8388  163.1684 C.ar    1  UNL1        0.0376
     30 C         143.2232  138.9502  166.7097 C.2     1  UNL1        0.2490
     31 O         144.1743  137.8055  166.8967 O.2     1  UNL1       -0.2699
     32 N         142.4481  139.4801  167.8796 N.am    1  UNL1       -0.2760
     33 C         141.4398  140.5731  168.0766 C.3     1  UNL1        0.0955
     34 C         141.3520  140.2294  169.5340 C.3     1  UNL1        0.0430
     35 C         142.3602  139.1364  169.3370 C.3     1  UNL1        0.0955
@<TRIPOS>BOND
     1    19    18    1
     2    19    20    1
     3    20    21    1
     4    19    17    1
     5    17     1    1
     6     1     2   ar
     7     2     3   ar
     8     3    23    1
     9    23    24    1
    10    24    25   ar
    11    25    26   ar
    12    26    27   ar
    13    27    30    1
    14    30    31    2
    15    30    32   am
    16    32    33    1
    17    33    34    1
    18    34    35    1
    19    27    28   ar
    20    28    29   ar
    21     3     4   ar
    22     4     5   ar
    23     5     7    1
    24     7     8    2
    25     7     9   am
    26     9    11    1
    27    11    12   ar
    28    12    13   ar
    29    13    14   ar
    30    14    15    1
    31    14    16   ar
    32     5     6   ar
    33     6     1   ar
    34    29    24   ar
    35    16    11   ar
    36    35    32    1
    37    21    22    1
    38     9    10    1
@<TRIPOS>MOLECULE
*****
 35 38 0 0 0
SMALL
GASTEIGER

@<TRIPOS>ATOM
      1 C         140.4699  141.0627  161.6828 C.ar    1  UNL1        0.1417
      2 C         139.9610  140.2828  162.8587 C.ar    1  UNL1        0.0743
      3 C         140.1282  138.7928  162.8996 C.ar    1  UNL1        0.1485
      4 C         140.8044  138.0825  161.7646 C.ar    1  UNL1        0.0422
      5 C         141.3133  138.8623  160.5887 C.ar    1  UNL1        0.0597
      6 C         141.1461  140.3524  160.5478 C.ar    1  UNL1        0.0416
      7 C         141.9896  138.1521  159.4536 C.2     1  UNL1        0.2508
      8 O         143.1314  137.2185  159.7269 O.2     1  UNL1       -0.2698
      9 N         141.5240  138.3754  158.0453 N.am    1  UNL1       -0.2644
     10 H         140.7746  138.9882  157.8660 H       1  UNL1        0.1566
     11 C         142.2002  137.6652  156.9103 C.ar    1  UNL1        0.1557
     12 C         143.3496  138.1898  156.1017 C.ar    1  UNL1        0.0564
     13 C         143.7055  137.1545  155.0762 C.ar    1  UNL1        0.0981
     14 N         142.7762  135.9901  155.2511 N.ar    1  UNL1       -0.2462
     15 C         142.7770  134.7312  154.4356 C.3     1  UNL1        0.1538
     16 N         141.8459  136.3058  156.3846 N.ar    1  UNL1       -0.1539
     17 O         140.3026  142.5528  161.6419 O.3     1  UNL1       -0.4765
     18 C         137.9375  143.3085  162.4066 C.3     1  UNL1        0.0500
     19 C         139.4172  143.2358  162.6415 C.3     1  UNL1        0.1951
     20 C         140.0115  143.8462  163.8762 C.3     1  UNL1        0.1807
     21 O         140.1831  143.0173  165.1146 O.3     1  UNL1       -0.3785
     22 H         139.3117  142.7679  165.4600 H       1  UNL1        0.2106
     23 O         139.6193  138.0129  164.0756 O.3     1  UNL1       -0.4534
     24 C         139.5692  138.6497  165.4328 C.ar    1  UNL1        0.1453
     25 C         138.2842  138.6662  166.2066 C.ar    1  UNL1        0.0376
     26 C         138.2342  139.3029  167.5638 C.ar    1  UNL1        0.0076
     27 C         139.4691  139.9232  168.1473 C.ar    1  UNL1        0.0538
     28 C         140.7540  139.9067  167.3735 C.ar    1  UNL1        0.0076
     29 C         140.8040  139.2699  166.0163 C.ar    1  UNL1        0.0376
     30 C         139.4191  140.5599  169.5045 C.2     1  UNL1        0.2490
     31 O         138.9367  139.7712  170.6856 O.2     1  UNL1       -0.2699
     32 N         139.8514  141.9855  169.6805 N.am    1  UNL1       -0.2760
     33 C         140.3744  143.0556  168.7687 C.3     1  UNL1        0.0955
     34 C         140.4627  144.0015  169.9295 C.3     1  UNL1        0.0430
     35 C         139.9397  142.9314  170.8413 C.3     1  UNL1        0.0955
@<TRIPOS>BOND
     1    19    18    1
     2    19    20    1
     3    20    21    1
     4    19    17    1
     5    17     1    1
     6     1     2   ar
     7     2     3   ar
     8     3    23    1
     9    23    24    1
    10    24    25   ar
    11    25    26   ar
    12    26    27   ar
    13    27    30    1
    14    30    31    2
    15    30    32   am
    16    32    33    1
    17    33    34    1
    18    34    35    1
    19    27    28   ar
    20    28    29   ar
    21     3     4   ar
    22     4     5   ar
    23     5     7    1
    24     7     8    2
    25     7     9   am
    26     9    11    1
    27    11    12   ar
    28    12    13   ar
    29    13    14   ar
    30    14    15    1
    31    14    16   ar
    32     5     6   ar
    33     6     1   ar
    34    29    24   ar
    35    16    11   ar
    36    35    32    1
    37    21    22    1
    38     9    10    1
@<TRIPOS>MOLECULE
*****
 35 38 0 0 0
SMALL
GASTEIGER

@<TRIPOS>ATOM
      1 C         141.6791  143.2671  160.8164 C.ar    1  UNL1        0.1417
      2 C         140.8755  142.1086  161.3284 C.ar    1  UNL1        0.0743
      3 C         141.1528  140.7229  160.8255 C.ar    1  UNL1        0.1485
      4 C         142.2336  140.4956  159.8106 C.ar    1  UNL1        0.0422
      5 C         143.0372  141.6540  159.2986 C.ar    1  UNL1        0.0597
      6 C         142.7600  143.0398  159.8015 C.ar    1  UNL1        0.0416
      7 C         144.1182  141.4268  158.2837 C.2     1  UNL1        0.2508
      8 O         144.5169  140.0291  157.9128 O.2     1  UNL1       -0.2698
      9 N         144.8003  142.5971  157.6397 N.am    1  UNL1       -0.2644
     10 H         144.5387  143.5145  157.8831 H       1  UNL1        0.1566
     11 C         145.8813  142.3699  156.6247 C.ar    1  UNL1        0.1557
     12 C         147.3522  142.5654  156.8445 C.ar    1  UNL1        0.0564
     13 C         148.0611  142.2236  155.5675 C.ar    1  UNL1        0.0981
     14 N         147.0282  141.8168  154.5585 N.ar    1  UNL1       -0.2462
     15 C         147.2956  141.3939  153.1445 C.3     1  UNL1        0.1538
     16 N         145.6811  141.9072  155.2120 N.ar    1  UNL1       -0.1539
     17 O         141.4019  144.6528  161.3192 O.3     1  UNL1       -0.4765
     18 C         140.0644  144.9928  163.5205 C.3     1  UNL1        0.0500
     19 C         141.3751  144.9240  162.7942 C.3     1  UNL1        0.1951
     20 C         142.6590  145.1266  163.5430 C.3     1  UNL1        0.1807
     21 O         143.9370  145.3558  162.7921 O.3     1  UNL1       -0.3785
     22 H         144.1655  144.5571  162.2913 H       1  UNL1        0.2106
     23 O         140.3491  139.5644  161.3376 O.3     1  UNL1       -0.4534
     24 C         139.9476  139.5103  162.7819 C.ar    1  UNL1        0.1453
     25 C         140.8712  138.9011  163.7947 C.ar    1  UNL1        0.0376
     26 C         140.4697  138.8469  165.2390 C.ar    1  UNL1        0.0076
     27 C         139.1446  139.4020  165.6703 C.ar    1  UNL1        0.0538
     28 C         138.2210  140.0111  164.6575 C.ar    1  UNL1        0.0076
     29 C         138.6225  140.0653  163.2132 C.ar    1  UNL1        0.0376
     30 C         138.7431  139.3478  167.1146 C.2     1  UNL1        0.2490
     31 O         137.6853  138.3836  167.5633 O.2     1  UNL1       -0.2699
     32 N         139.3993  140.2579  168.1101 N.am    1  UNL1       -0.2760
     33 C         140.4591  141.3173  168.0413 C.3     1  UNL1        0.0955
     34 C         140.3274  141.5450  169.5180 C.3     1  UNL1        0.0430
     35 C         139.2676  140.4857  169.5869 C.3     1  UNL1        0.0955
@<TRIPOS>BOND
     1    19    18    1
     2    19    20    1
     3    20    21    1
     4    19    17    1
     5    17     1    1
     6     1     2   ar
     7     2     3   ar
     8     3    23    1
     9    23    24    1
    10    24    25   ar
    11    25    26   ar
    12    26    27   ar
    13    27    30    1
    14    30    31    2
    15    30    32   am
    16    32    33    1
    17    33    34    1
    18    34    35    1
    19    27    28   ar
    20    28    29   ar
    21     3     4   ar
    22     4     5   ar
    23     5     7    1
    24     7     8    2
    25     7     9   am
    26     9    11    1
    27    11    12   ar
    28    12    13   ar
    29    13    14   ar
    30    14    15    1
    31    14    16   ar
    32     5     6   ar
    33     6     1   ar
    34    29    24   ar
    35    16    11   ar
    36    35    32    1
    37    21    22    1
    38     9    10    1
