@<TRIPOS>MOLECULE
*****
 30 33 0 0 0
SMALL
GASTEIGER

@<TRIPOS>ATOM
      1 C         139.9746  139.9421  167.2108 C.ar    1  UNL1        0.1317
      2 C         138.7143  139.1694  166.9573 C.ar    1  UNL1        0.0548
      3 C         137.9283  139.4074  165.7021 C.ar    1  UNL1        0.1049
      4 N         138.4026  140.4182  164.7005 N.ar    1  UNL1       -0.2105
      5 N         137.8419  140.8651  163.3828 N.ar    1  UNL1       -0.1621
      6 C         138.7558  141.9141  162.8221 C.ar    1  UNL1        0.1236
      7 C         139.8813  142.1154  163.7931 C.ar    1  UNL1        0.0569
      8 C         139.6630  141.1910  164.9540 C.ar    1  UNL1        0.1666
      9 N         140.4490  140.9529  166.2091 N.ar    1  UNL1       -0.2120
     10 C         141.0244  143.0732  163.6316 C.ar    1  UNL1        0.0075
     11 C         140.8031  144.5443  163.8235 C.ar    1  UNL1        0.0003
     12 C         141.9462  145.5020  163.6620 C.ar    1  UNL1        0.0031
     13 C         143.3106  144.9887  163.3086 C.ar    1  UNL1        0.0372
     14 C         143.5318  143.5176  163.1167 C.ar    1  UNL1        0.1468
     15 C         142.3888  142.5599  163.2782 C.ar    1  UNL1        0.0373
     16 O         144.8963  143.0042  162.7632 O.3     1  UNL1       -0.4045
     17 C         145.3962  141.7255  163.3674 C.3     1  UNL1        0.5753
     18 F         145.8961  140.4467  163.9715 F       1  UNL1       -0.1328
     19 F         145.6481  142.4365  164.6639 F       1  UNL1       -0.1328
     20 F         145.1443  141.0144  162.0708 F       1  UNL1       -0.1328
     21 N         140.7607  139.7041  168.4660 N.pl3   1  UNL1       -0.3196
     22 H         140.8253  138.7964  168.8417 H       1  UNL1        0.1481
     23 O         143.5108  144.2840  171.1974 O.3     1  UNL1       -0.3845
     24 C         142.8233  143.1391  170.5146 C.3     1  UNL1        0.1106
     25 C         141.3308  143.1421  170.3649 C.3     1  UNL1        0.0309
     26 C         140.6432  141.9971  169.6820 C.3     1  UNL1        0.0220
     27 C         141.4482  140.8491  169.1489 C.3     1  UNL1        0.0705
     28 C         142.9408  140.8461  169.2986 C.3     1  UNL1        0.0220
     29 C         143.6283  141.9911  169.9814 C.3     1  UNL1        0.0309
     30 H         142.8503  144.9360  171.4795 H       1  UNL1        0.2103
@<TRIPOS>BOND
     1    24    23    1
     2    24    25    1
     3    25    26    1
     4    26    27    1
     5    27    21    1
     6    21     1    1
     7     1     2   ar
     8     2     3   ar
     9     3     4   ar
    10     4     5   ar
    11     5     6   ar
    12     6     7   ar
    13     7    10    1
    14    10    11   ar
    15    11    12   ar
    16    12    13   ar
    17    13    14   ar
    18    14    16    1
    19    16    17    1
    20    17    18    1
    21    17    19    1
    22    17    20    1
    23    14    15   ar
    24     7     8   ar
    25     8     9   ar
    26    27    28    1
    27    28    29    1
    28    29    24    1
    29     9     1   ar
    30     8     4   ar
    31    15    10   ar
    32    23    30    1
    33    21    22    1
@<TRIPOS>MOLECULE
*****
 30 33 0 0 0
SMALL
GASTEIGER

@<TRIPOS>ATOM
      1 C         139.5326  139.6042  167.4367 C.ar    1  UNL1        0.1317
      2 C         138.2505  138.9892  166.9595 C.ar    1  UNL1        0.0548
      3 C         138.0663  138.6728  165.5049 C.ar    1  UNL1        0.1049
      4 N         139.1642  138.9716  164.5275 N.ar    1  UNL1       -0.2105
      5 N         139.2696  138.7718  163.0445 N.ar    1  UNL1       -0.1621
      6 C         140.6170  139.2634  162.6053 C.ar    1  UNL1        0.1236
      7 C         141.3442  139.7670  163.8167 C.ar    1  UNL1        0.0569
      8 C         140.4463  139.5866  165.0047 C.ar    1  UNL1        0.1666
      9 N         140.6305  139.9030  166.4593 N.ar    1  UNL1       -0.2120
     10 C         142.7266  140.3488  163.8367 C.ar    1  UNL1        0.0075
     11 C         143.8928  139.4976  164.2436 C.ar    1  UNL1        0.0003
     12 C         145.2752  140.0795  164.2636 C.ar    1  UNL1        0.0031
     13 C         145.4915  141.5124  163.8768 C.ar    1  UNL1        0.0372
     14 C         144.3254  142.3636  163.4699 C.ar    1  UNL1        0.1468
     15 C         142.9430  141.7818  163.4499 C.ar    1  UNL1        0.0373
     16 O         144.5416  143.7968  163.0831 O.3     1  UNL1       -0.4045
     17 C         143.5525  144.8440  163.5013 C.3     1  UNL1        0.5753
     18 F         142.5633  145.8912  163.9196 F       1  UNL1       -0.1328
     19 F         142.8982  144.7640  162.1539 F       1  UNL1       -0.1328
     20 F         144.2069  144.9239  164.8487 F       1  UNL1       -0.1328
     21 N         139.7169  139.9206  168.8914 N.pl3   1  UNL1       -0.3196
     22 H         139.1068  139.5339  169.5604 H       1  UNL1        0.1481
     23 O         144.1718  143.5427  170.6330 O.3     1  UNL1       -0.3845
     24 C         143.0581  142.6372  170.1976 C.3     1  UNL1        0.1106
     25 C         141.6957  143.2020  169.9243 C.3     1  UNL1        0.0309
     26 C         140.5819  142.2964  169.4888 C.3     1  UNL1        0.0220
     27 C         140.8306  140.8261  169.3268 C.3     1  UNL1        0.0705
     28 C         142.1931  140.2613  169.6001 C.3     1  UNL1        0.0220
     29 C         143.3068  141.1668  170.0355 C.3     1  UNL1        0.0309
     30 H         143.8447  144.4542  170.6876 H       1  UNL1        0.2103
@<TRIPOS>BOND
     1    24    23    1
     2    24    25    1
     3    25    26    1
     4    26    27    1
     5    27    21    1
     6    21     1    1
     7     1     2   ar
     8     2     3   ar
     9     3     4   ar
    10     4     5   ar
    11     5     6   ar
    12     6     7   ar
    13     7    10    1
    14    10    11   ar
    15    11    12   ar
    16    12    13   ar
    17    13    14   ar
    18    14    16    1
    19    16    17    1
    20    17    18    1
    21    17    19    1
    22    17    20    1
    23    14    15   ar
    24     7     8   ar
    25     8     9   ar
    26    27    28    1
    27    28    29    1
    28    29    24    1
    29     9     1   ar
    30     8     4   ar
    31    15    10   ar
    32    23    30    1
    33    21    22    1
@<TRIPOS>MOLECULE
*****
 30 33 0 0 0
SMALL
GASTEIGER

@<TRIPOS>ATOM
      1 C         142.0906  141.5878  167.0738 C.ar    1  UNL1        0.1317
      2 C         141.9481  141.0622  168.4714 C.ar    1  UNL1        0.0548
      3 C         140.7785  140.1947  168.8308 C.ar    1  UNL1        0.1049
      4 N         139.7513  139.8527  167.7926 N.ar    1  UNL1       -0.2105
      5 N         138.5009  139.0261  167.8518 N.ar    1  UNL1       -0.1621
      6 C         137.8707  139.0408  166.4907 C.ar    1  UNL1        0.1236
      7 C         138.7315  139.8765  165.5903 C.ar    1  UNL1        0.0569
      8 C         139.8938  140.3782  166.3949 C.ar    1  UNL1        0.1666
      9 N         141.0634  141.2458  166.0355 N.ar    1  UNL1       -0.2120
     10 C         138.4751  140.1606  164.1400 C.ar    1  UNL1        0.0075
     11 C         138.3867  139.0297  163.1584 C.ar    1  UNL1        0.0003
     12 C         138.1303  139.3138  161.7081 C.ar    1  UNL1        0.0031
     13 C         137.9622  140.7287  161.2392 C.ar    1  UNL1        0.0372
     14 C         138.0506  141.8595  162.2207 C.ar    1  UNL1        0.1468
     15 C         138.3070  141.5754  163.6711 C.ar    1  UNL1        0.0373
     16 O         137.8826  143.2745  161.7519 O.3     1  UNL1       -0.4045
     17 C         138.5468  144.3949  162.4958 C.3     1  UNL1        0.5753
     18 F         139.2110  145.5154  163.2397 F       1  UNL1       -0.1328
     19 F         137.2534  144.6994  163.1919 F       1  UNL1       -0.1328
     20 F         139.8401  144.0904  161.7996 F       1  UNL1       -0.1328
     21 N         143.2603  142.4554  166.7143 N.pl3   1  UNL1       -0.3196
     22 H         143.7051  142.9942  167.4079 H       1  UNL1        0.1481
     23 O         145.2282  142.6421  161.0493 O.3     1  UNL1       -0.3845
     24 C         144.7362  142.5954  162.4655 C.3     1  UNL1        0.1106
     25 C         144.8724  141.3340  163.2656 C.3     1  UNL1        0.0309
     26 C         144.3805  141.2873  164.6819 C.3     1  UNL1        0.0220
     27 C         143.7523  142.5021  165.2981 C.3     1  UNL1        0.0705
     28 C         143.6161  143.7636  164.4979 C.3     1  UNL1        0.0220
     29 C         144.1080  143.8102  163.0817 C.3     1  UNL1        0.0309
     30 H         145.6033  141.7805  160.8088 H       1  UNL1        0.2103
@<TRIPOS>BOND
     1    24    23    1
     2    24    25    1
     3    25    26    1
     4    26    27    1
     5    27    21    1
     6    21     1    1
     7     1     2   ar
     8     2     3   ar
     9     3     4   ar
    10     4     5   ar
    11     5     6   ar
    12     6     7   ar
    13     7    10    1
    14    10    11   ar
    15    11    12   ar
    16    12    13   ar
    17    13    14   ar
    18    14    16    1
    19    16    17    1
    20    17    18    1
    21    17    19    1
    22    17    20    1
    23    14    15   ar
    24     7     8   ar
    25     8     9   ar
    26    27    28    1
    27    28    29    1
    28    29    24    1
    29     9     1   ar
    30     8     4   ar
    31    15    10   ar
    32    23    30    1
    33    21    22    1
@<TRIPOS>MOLECULE
*****
 30 33 0 0 0
SMALL
GASTEIGER

@<TRIPOS>ATOM
      1 C         139.4299  139.2939  165.8747 C.ar    1  UNL1        0.1317
      2 C         138.6364  138.1393  165.3388 C.ar    1  UNL1        0.0548
      3 C         139.1065  137.4098  164.1153 C.ar    1  UNL1        0.1049
      4 N         140.3701  137.8349  163.4278 N.ar    1  UNL1       -0.2105
      5 N         141.0768  137.3110  162.2128 N.ar    1  UNL1       -0.1621
      6 C         142.3070  138.1418  161.9979 C.ar    1  UNL1        0.1236
      7 C         142.3607  139.1792  163.0800 C.ar    1  UNL1        0.0569
      8 C         141.1635  138.9895  163.9637 C.ar    1  UNL1        0.1666
      9 N         140.6935  139.7190  165.1872 N.ar    1  UNL1       -0.2120
     10 C         143.4246  140.2229  163.2488 C.ar    1  UNL1        0.0075
     11 C         144.7463  139.8554  163.8554 C.ar    1  UNL1        0.0003
     12 C         145.8103  140.8992  164.0242 C.ar    1  UNL1        0.0031
     13 C         145.5526  142.3105  163.5864 C.ar    1  UNL1        0.0372
     14 C         144.2308  142.6781  162.9799 C.ar    1  UNL1        0.1468
     15 C         143.1669  141.6343  162.8111 C.ar    1  UNL1        0.0373
     16 O         143.9731  144.0895  162.5421 O.3     1  UNL1       -0.4045
     17 C         142.9943  144.9413  163.2947 C.3     1  UNL1        0.5753
     18 F         142.0154  145.7931  164.0473 F       1  UNL1       -0.1328
     19 F         144.0014  145.1306  164.3901 F       1  UNL1       -0.1328
     20 F         141.9872  144.7519  162.1992 F       1  UNL1       -0.1328
     21 N         138.9599  140.0234  167.0982 N.pl3   1  UNL1       -0.3196
     22 H         138.0600  140.4223  167.1182 H       1  UNL1        0.1481
     23 O         142.5638  140.5106  171.8704 O.3     1  UNL1       -0.3845
     24 C         141.6628  140.3888  170.6774 C.3     1  UNL1        0.1106
     25 C         142.2420  140.0801  169.3286 C.3     1  UNL1        0.0309
     26 C         141.3410  139.9583  168.1355 C.3     1  UNL1        0.0220
     27 C         139.8608  140.1452  168.2912 C.3     1  UNL1        0.0705
     28 C         139.2817  140.4540  169.6401 C.3     1  UNL1        0.0220
     29 C         140.1827  140.5758  170.8331 C.3     1  UNL1        0.0309
     30 H         143.4829  140.3624  171.5980 H       1  UNL1        0.2103
@<TRIPOS>BOND
     1    24    23    1
     2    24    25    1
     3    25    26    1
     4    26    27    1
     5    27    21    1
     6    21     1    1
     7     1     2   ar
     8     2     3   ar
     9     3     4   ar
    10     4     5   ar
    11     5     6   ar
    12     6     7   ar
    13     7    10    1
    14    10    11   ar
    15    11    12   ar
    16    12    13   ar
    17    13    14   ar
    18    14    16    1
    19    16    17    1
    20    17    18    1
    21    17    19    1
    22    17    20    1
    23    14    15   ar
    24     7     8   ar
    25     8     9   ar
    26    27    28    1
    27    28    29    1
    28    29    24    1
    29     9     1   ar
    30     8     4   ar
    31    15    10   ar
    32    23    30    1
    33    21    22    1
@<TRIPOS>MOLECULE
*****
 30 33 0 0 0
SMALL
GASTEIGER

@<TRIPOS>ATOM
      1 C         142.3762  139.7677  165.2089 C.ar    1  UNL1        0.1317
      2 C         143.7243  139.1148  165.2882 C.ar    1  UNL1        0.0548
      3 C         144.8650  139.6480  164.4731 C.ar    1  UNL1        0.1049
      4 N         144.6576  140.8341  163.5786 N.ar    1  UNL1       -0.2105
      5 N         145.5867  141.5764  162.6643 N.ar    1  UNL1       -0.1621
      6 C         144.8128  142.6881  162.0200 C.ar    1  UNL1        0.1236
      7 C         143.4055  142.6329  162.5361 C.ar    1  UNL1        0.0569
      8 C         143.3095  141.4871  163.4993 C.ar    1  UNL1        0.1666
      9 N         142.1689  140.9539  164.3145 N.ar    1  UNL1       -0.2120
     10 C         142.2898  143.5607  162.1557 C.ar    1  UNL1        0.0075
     11 C         142.2080  144.1023  160.7593 C.ar    1  UNL1        0.0003
     12 C         141.0924  145.0300  160.3789 C.ar    1  UNL1        0.0031
     13 C         140.0586  145.4162  161.3948 C.ar    1  UNL1        0.0372
     14 C         140.1405  144.8746  162.7912 C.ar    1  UNL1        0.1468
     15 C         141.2561  143.9468  163.1716 C.ar    1  UNL1        0.0373
     16 O         139.1067  145.2607  163.8073 O.3     1  UNL1       -0.4045
     17 C         138.1806  144.2220  164.3671 C.3     1  UNL1        0.5753
     18 F         137.2545  143.1832  164.9269 F       1  UNL1       -0.1328
     19 F         138.8896  144.3010  165.6866 F       1  UNL1       -0.1328
     20 F         137.4717  144.1429  163.0475 F       1  UNL1       -0.1328
     21 N         141.2355  139.2346  166.0241 N.pl3   1  UNL1       -0.3196
     22 H         140.5663  138.6446  165.6077 H       1  UNL1        0.1481
     23 O         140.7507  140.6973  171.8228 O.3     1  UNL1       -0.3845
     24 C         140.8719  140.3316  170.3732 C.3     1  UNL1        0.1106
     25 C         139.6772  140.4324  169.4719 C.3     1  UNL1        0.0309
     26 C         139.7983  140.0667  168.0221 C.3     1  UNL1        0.0220
     27 C         141.1143  139.6003  167.4738 C.3     1  UNL1        0.0705
     28 C         142.3091  139.4995  168.3752 C.3     1  UNL1        0.0220
     29 C         142.1878  139.8651  169.8248 C.3     1  UNL1        0.0309
     30 H         139.8408  140.9758  172.0110 H       1  UNL1        0.2103
@<TRIPOS>BOND
     1    24    23    1
     2    24    25    1
     3    25    26    1
     4    26    27    1
     5    27    21    1
     6    21     1    1
     7     1     2   ar
     8     2     3   ar
     9     3     4   ar
    10     4     5   ar
    11     5     6   ar
    12     6     7   ar
    13     7    10    1
    14    10    11   ar
    15    11    12   ar
    16    12    13   ar
    17    13    14   ar
    18    14    16    1
    19    16    17    1
    20    17    18    1
    21    17    19    1
    22    17    20    1
    23    14    15   ar
    24     7     8   ar
    25     8     9   ar
    26    27    28    1
    27    28    29    1
    28    29    24    1
    29     9     1   ar
    30     8     4   ar
    31    15    10   ar
    32    23    30    1
    33    21    22    1
@<TRIPOS>MOLECULE
*****
 30 33 0 0 0
SMALL
GASTEIGER

@<TRIPOS>ATOM
      1 C         139.7173  142.3646  164.9813 C.ar    1  UNL1        0.1317
      2 C         138.5292  143.2485  165.2201 C.ar    1  UNL1        0.0548
      3 C         138.2384  144.3833  164.2832 C.ar    1  UNL1        0.1049
      4 N         139.1357  144.6340  163.1076 N.ar    1  UNL1       -0.2105
      5 N         139.1015  145.6680  162.0213 N.ar    1  UNL1       -0.1621
      6 C         140.2684  145.4230  161.1113 C.ar    1  UNL1        0.1236
      7 C         141.0238  144.2376  161.6351 C.ar    1  UNL1        0.0569
      8 C         140.3237  143.7500  162.8688 C.ar    1  UNL1        0.1666
      9 N         140.6145  142.6153  163.8057 N.ar    1  UNL1       -0.2120
     10 C         142.2619  143.6440  161.0311 C.ar    1  UNL1        0.0075
     11 C         142.4047  143.5637  159.5401 C.ar    1  UNL1        0.0003
     12 C         143.6428  142.9701  158.9362 C.ar    1  UNL1        0.0031
     13 C         144.7381  142.4569  159.8232 C.ar    1  UNL1        0.0372
     14 C         144.5953  142.5372  161.3142 C.ar    1  UNL1        0.1468
     15 C         143.3572  143.1308  161.9181 C.ar    1  UNL1        0.0373
     16 O         145.6906  142.0239  162.2013 O.3     1  UNL1       -0.4045
     17 C         145.3636  141.1081  163.3434 C.3     1  UNL1        0.5753
     18 F         145.0366  140.1922  164.4855 F       1  UNL1       -0.1328
     19 F         145.9122  142.1164  164.3090 F       1  UNL1       -0.1328
     20 F         144.8150  140.0998  162.3777 F       1  UNL1       -0.1328
     21 N         140.0082  141.2298  165.9182 N.pl3   1  UNL1       -0.3196
     22 H         140.1436  140.3213  165.5639 H       1  UNL1        0.1481
     23 O         140.3464  142.2276  171.8249 O.3     1  UNL1       -0.3845
     24 C         140.2618  141.9781  170.3483 C.3     1  UNL1        0.1106
     25 C         139.6853  140.6913  169.8369 C.3     1  UNL1        0.0309
     26 C         139.6007  140.4418  168.3601 C.3     1  UNL1        0.0220
     27 C         140.0927  141.4792  167.3949 C.3     1  UNL1        0.0705
     28 C         140.6693  142.7661  167.9064 C.3     1  UNL1        0.0220
     29 C         140.7538  143.0155  169.3830 C.3     1  UNL1        0.0309
     30 H         139.9885  141.4632  172.3030 H       1  UNL1        0.2103
@<TRIPOS>BOND
     1    24    23    1
     2    24    25    1
     3    25    26    1
     4    26    27    1
     5    27    21    1
     6    21     1    1
     7     1     2   ar
     8     2     3   ar
     9     3     4   ar
    10     4     5   ar
    11     5     6   ar
    12     6     7   ar
    13     7    10    1
    14    10    11   ar
    15    11    12   ar
    16    12    13   ar
    17    13    14   ar
    18    14    16    1
    19    16    17    1
    20    17    18    1
    21    17    19    1
    22    17    20    1
    23    14    15   ar
    24     7     8   ar
    25     8     9   ar
    26    27    28    1
    27    28    29    1
    28    29    24    1
    29     9     1   ar
    30     8     4   ar
    31    15    10   ar
    32    23    30    1
    33    21    22    1
@<TRIPOS>MOLECULE
*****
 30 33 0 0 0
SMALL
GASTEIGER

@<TRIPOS>ATOM
      1 C         140.4257  142.7469  167.0059 C.ar    1  UNL1        0.1317
      2 C         140.6173  142.7783  168.4932 C.ar    1  UNL1        0.0548
      3 C         141.4288  141.7121  169.1675 C.ar    1  UNL1        0.1049
      4 N         142.0488  140.6146  168.3544 N.ar    1  UNL1       -0.2105
      5 N         142.8940  139.4362  168.7379 N.ar    1  UNL1       -0.1621
      6 C         143.2248  138.6766  167.4875 C.ar    1  UNL1        0.1236
      7 C         142.5840  139.3854  166.3313 C.ar    1  UNL1        0.0569
      8 C         141.8572  140.5832  166.8671 C.ar    1  UNL1        0.1666
      9 N         141.0456  141.6493  166.1928 N.ar    1  UNL1       -0.2120
     10 C         142.6571  138.9696  164.8920 C.ar    1  UNL1        0.0075
     11 C         143.9223  139.1797  164.1139 C.ar    1  UNL1        0.0003
     12 C         143.9954  138.7638  162.6746 C.ar    1  UNL1        0.0031
     13 C         142.8035  138.1379  162.0132 C.ar    1  UNL1        0.0372
     14 C         141.5384  137.9278  162.7912 C.ar    1  UNL1        0.1468
     15 C         141.4652  138.3437  164.2306 C.ar    1  UNL1        0.0373
     16 O         140.3463  137.3019  162.1298 O.3     1  UNL1       -0.4045
     17 C         139.0287  138.0187  162.1253 C.3     1  UNL1        0.5753
     18 F         137.7110  138.7355  162.1207 F       1  UNL1       -0.1328
     19 F         138.5288  137.1067  163.2063 F       1  UNL1       -0.1328
     20 F         139.5286  138.9306  161.0443 F       1  UNL1       -0.1328
     21 N         139.6141  143.8130  166.3315 N.pl3   1  UNL1       -0.3196
     22 H         139.3480  144.6188  166.8307 H       1  UNL1        0.1481
     23 O         137.9897  143.1671  160.5919 O.3     1  UNL1       -0.3845
     24 C         138.3958  143.3286  162.0268 C.3     1  UNL1        0.1106
     25 C         137.6312  142.6221  163.1066 C.3     1  UNL1        0.0309
     26 C         138.0373  142.7835  164.5416 C.3     1  UNL1        0.0220
     27 C         139.2080  143.6515  164.8966 C.3     1  UNL1        0.0705
     28 C         139.9726  144.3581  163.8167 C.3     1  UNL1        0.0220
     29 C         139.5665  144.1966  162.3818 C.3     1  UNL1        0.0309
     30 H         137.2209  142.5781  160.5377 H       1  UNL1        0.2103
@<TRIPOS>BOND
     1    24    23    1
     2    24    25    1
     3    25    26    1
     4    26    27    1
     5    27    21    1
     6    21     1    1
     7     1     2   ar
     8     2     3   ar
     9     3     4   ar
    10     4     5   ar
    11     5     6   ar
    12     6     7   ar
    13     7    10    1
    14    10    11   ar
    15    11    12   ar
    16    12    13   ar
    17    13    14   ar
    18    14    16    1
    19    16    17    1
    20    17    18    1
    21    17    19    1
    22    17    20    1
    23    14    15   ar
    24     7     8   ar
    25     8     9   ar
    26    27    28    1
    27    28    29    1
    28    29    24    1
    29     9     1   ar
    30     8     4   ar
    31    15    10   ar
    32    23    30    1
    33    21    22    1
@<TRIPOS>MOLECULE
*****
 30 33 0 0 0
SMALL
GASTEIGER

@<TRIPOS>ATOM
      1 C         140.6867  139.2928  165.5825 C.ar    1  UNL1        0.1317
      2 C         139.8922  138.0473  165.3232 C.ar    1  UNL1        0.0548
      3 C         138.8794  138.0205  164.2171 C.ar    1  UNL1        0.1049
      4 N         138.6611  139.2392  163.3704 N.ar    1  UNL1       -0.2105
      5 N         137.7395  139.5087  162.2179 N.ar    1  UNL1       -0.1621
      6 C         137.9644  140.9209  161.7650 C.ar    1  UNL1        0.1236
      7 C         139.0250  141.5241  162.6376 C.ar    1  UNL1        0.0569
      8 C         139.4556  140.4848  163.6297 C.ar    1  UNL1        0.1666
      9 N         140.4684  140.5116  164.7358 N.ar    1  UNL1       -0.2120
     10 C         139.5610  142.9214  162.5358 C.ar    1  UNL1        0.0075
     11 C         138.6187  144.0885  162.5429 C.ar    1  UNL1        0.0003
     12 C         139.1547  145.4858  162.4412 C.ar    1  UNL1        0.0031
     13 C         140.6329  145.7160  162.3324 C.ar    1  UNL1        0.0372
     14 C         141.5751  144.5490  162.3254 C.ar    1  UNL1        0.1468
     15 C         141.0392  143.1517  162.4271 C.ar    1  UNL1        0.0373
     16 O         143.0535  144.7792  162.2166 O.3     1  UNL1       -0.4045
     17 C         143.9759  144.2404  163.2696 C.3     1  UNL1        0.5753
     18 F         144.8983  143.7017  164.3227 F       1  UNL1       -0.1328
     19 F         144.6722  143.4083  162.2339 F       1  UNL1       -0.1328
     20 F         143.2794  145.0726  164.3053 F       1  UNL1       -0.1328
     21 N         141.6996  139.3197  166.6886 N.pl3   1  UNL1       -0.3196
     22 H         142.5719  138.8794  166.5681 H       1  UNL1        0.1481
     23 O         140.4350  142.1105  171.8473 O.3     1  UNL1       -0.3845
     24 C         140.7511  141.4128  170.5576 C.3     1  UNL1        0.1106
     25 C         142.1788  141.2146  170.1426 C.3     1  UNL1        0.0309
     26 C         142.4950  140.5169  168.8529 C.3     1  UNL1        0.0220
     27 C         141.3835  140.0174  167.9783 C.3     1  UNL1        0.0705
     28 C         139.9557  140.2157  168.3934 C.3     1  UNL1        0.0220
     29 C         139.6396  140.9134  169.6830 C.3     1  UNL1        0.0309
     30 H         141.2607  142.3669  172.2870 H       1  UNL1        0.2103
@<TRIPOS>BOND
     1    24    23    1
     2    24    25    1
     3    25    26    1
     4    26    27    1
     5    27    21    1
     6    21     1    1
     7     1     2   ar
     8     2     3   ar
     9     3     4   ar
    10     4     5   ar
    11     5     6   ar
    12     6     7   ar
    13     7    10    1
    14    10    11   ar
    15    11    12   ar
    16    12    13   ar
    17    13    14   ar
    18    14    16    1
    19    16    17    1
    20    17    18    1
    21    17    19    1
    22    17    20    1
    23    14    15   ar
    24     7     8   ar
    25     8     9   ar
    26    27    28    1
    27    28    29    1
    28    29    24    1
    29     9     1   ar
    30     8     4   ar
    31    15    10   ar
    32    23    30    1
    33    21    22    1
@<TRIPOS>MOLECULE
*****
 30 33 0 0 0
SMALL
GASTEIGER

@<TRIPOS>ATOM
      1 C         139.2627  139.8659  168.1065 C.ar    1  UNL1        0.1317
      2 C         139.0443  140.1624  169.5606 C.ar    1  UNL1        0.0548
      3 C         140.0547  140.9683  170.3217 C.ar    1  UNL1        0.1049
      4 N         141.2837  141.4778  169.6287 N.ar    1  UNL1       -0.2105
      5 N         142.4458  142.2918  170.1156 N.ar    1  UNL1       -0.1621
      6 C         143.3825  142.4983  168.9623 C.ar    1  UNL1        0.1236
      7 C         142.7993  141.8120  167.7628 C.ar    1  UNL1        0.0569
      8 C         141.5021  141.1813  168.1747 C.ar    1  UNL1        0.1666
      9 N         140.4916  140.3754  167.4136 N.ar    1  UNL1       -0.2120
     10 C         143.4065  141.7647  166.3921 C.ar    1  UNL1        0.0075
     11 C         143.9618  143.0136  165.7742 C.ar    1  UNL1        0.0003
     12 C         144.5691  142.9663  164.4035 C.ar    1  UNL1        0.0031
     13 C         144.6211  141.6701  163.6505 C.ar    1  UNL1        0.0372
     14 C         144.0658  140.4211  164.2683 C.ar    1  UNL1        0.1468
     15 C         143.4585  140.4684  165.6391 C.ar    1  UNL1        0.0373
     16 O         144.1178  139.1248  163.5153 O.3     1  UNL1       -0.4045
     17 C         142.9558  138.7042  162.6651 C.3     1  UNL1        0.5753
     18 F         141.7938  138.2836  161.8148 F       1  UNL1       -0.1328
     19 F         142.0910  139.7263  163.3414 F       1  UNL1       -0.1328
     20 F         143.8207  137.6821  161.9888 F       1  UNL1       -0.1328
     21 N         138.2522  139.0599  167.3454 N.pl3   1  UNL1       -0.3196
     22 H         137.5151  138.6160  167.8238 H       1  UNL1        0.1481
     23 O         138.7024  138.5412  161.3848 O.3     1  UNL1       -0.3845
     24 C         138.5899  138.6709  162.8749 C.3     1  UNL1        0.1106
     25 C         138.9382  137.5090  163.7573 C.3     1  UNL1        0.0309
     26 C         138.8257  137.6386  165.2475 C.3     1  UNL1        0.0220
     27 C         138.3648  138.9302  165.8552 C.3     1  UNL1        0.0705
     28 C         138.0164  140.0921  164.9728 C.3     1  UNL1        0.0220
     29 C         138.1290  139.9625  163.4827 C.3     1  UNL1        0.0309
     30 H         139.0116  137.6496  161.1603 H       1  UNL1        0.2103
@<TRIPOS>BOND
     1    24    23    1
     2    24    25    1
     3    25    26    1
     4    26    27    1
     5    27    21    1
     6    21     1    1
     7     1     2   ar
     8     2     3   ar
     9     3     4   ar
    10     4     5   ar
    11     5     6   ar
    12     6     7   ar
    13     7    10    1
    14    10    11   ar
    15    11    12   ar
    16    12    13   ar
    17    13    14   ar
    18    14    16    1
    19    16    17    1
    20    17    18    1
    21    17    19    1
    22    17    20    1
    23    14    15   ar
    24     7     8   ar
    25     8     9   ar
    26    27    28    1
    27    28    29    1
    28    29    24    1
    29     9     1   ar
    30     8     4   ar
    31    15    10   ar
    32    23    30    1
    33    21    22    1
