@<TRIPOS>MOLECULE
*****
 34 36 0 0 0
SMALL
GASTEIGER

@<TRIPOS>ATOM
      1 O         143.6915  142.5613  166.7665 O.2     1  UNL1       -0.2701
      2 C         143.3410  141.7692  165.5419 C.2     1  UNL1        0.2474
      3 N         143.2246  140.2759  165.6223 N.am    1  UNL1       -0.3005
      4 H         142.9946  139.7561  164.8185 H       1  UNL1        0.1498
      5 C         143.1069  142.4704  164.2367 C.ar    1  UNL1        0.0727
      6 C         143.1711  143.9675  164.1676 C.ar    1  UNL1        0.0109
      7 C         142.9369  144.6688  162.8625 C.ar    1  UNL1        0.0579
      8 C         142.6386  143.8730  161.6264 C.ar    1  UNL1        0.2249
      9 N         142.5745  142.3760  161.6955 N.ar    1  UNL1       -0.2100
     10 C         142.8086  141.6747  163.0007 C.ar    1  UNL1        0.1065
     11 O         142.4045  144.5742  160.3213 O.3     1  UNL1       -0.4599
     12 C         141.1431  145.3570  160.1062 C.3     1  UNL1        0.2159
     13 C         139.8471  144.8627  160.6770 C.3     1  UNL1        0.1505
     14 C         139.5082  145.1335  162.1130 C.3     1  UNL1        0.4014
     15 F         139.1694  145.4042  163.5489 F       1  UNL1       -0.1699
     16 F         139.7040  146.6026  161.8822 F       1  UNL1       -0.1699
     17 F         139.3125  143.6643  162.3437 F       1  UNL1       -0.1699
     18 C         143.4588  139.5746  166.9275 C.3     1  UNL1        0.0944
     19 C         142.2929  139.1454  167.7680 C.3     1  UNL1        0.0476
     20 C         141.7606  140.0570  168.8337 C.ar    1  UNL1       -0.0204
     21 C         142.4548  140.1455  170.1604 C.ar    1  UNL1       -0.0042
     22 C         141.9225  141.0570  171.2261 C.ar    1  UNL1       -0.0003
     23 C         140.6960  141.8802  170.9650 C.ar    1  UNL1       -0.0000
     24 C         140.0018  141.7917  169.6383 C.ar    1  UNL1       -0.0003
     25 C         140.5341  140.8802  168.5727 C.ar    1  UNL1       -0.0024
     26 C         139.8399  140.7917  167.2459 C.ar    1  UNL1        0.0189
     27 C         140.0109  141.8870  166.2354 C.ar    1  UNL1        0.0028
     28 C         139.3167  141.7986  164.9087 C.ar    1  UNL1        0.0172
     29 CA        138.4515  140.6148  164.5923 C.ar    1  UNL1        0.0885
     30 N         138.2806  139.5194  165.6027 N.ar    1  UNL1       -0.2457
     31 C         138.9748  139.6079  166.9295 C.ar    1  UNL1        0.0985
     32 C         137.7574  140.5263  163.2656 C.3     1  UNL1        0.1829
     33 O         136.5160  141.3297  163.0136 O.3     1  UNL1       -0.3760
     34 H         135.8035  141.0135  163.5909 H       1  UNL1        0.2110
@<TRIPOS>BOND
     1     1     2    2
     2     2     3   am
     3     3    18    1
     4    18    19    1
     5    19    20    1
     6    20    21   ar
     7    21    22   ar
     8    22    23   ar
     9    23    24   ar
    10    24    25   ar
    11    25    26    1
    12    26    27   ar
    13    27    28   ar
    14    28    29   ar
    15    29    32    1
    16    32    33    1
    17    29    30   ar
    18    30    31   ar
    19     2     5    1
    20     5     6   ar
    21     6     7   ar
    22     7     8   ar
    23     8    11    1
    24    11    12    1
    25    12    13    1
    26    13    14    1
    27    14    15    1
    28    14    16    1
    29    14    17    1
    30     8     9   ar
    31     9    10   ar
    32    25    20   ar
    33    31    26   ar
    34    10     5   ar
    35     3     4    1
    36    33    34    1
@<TRIPOS>MOLECULE
*****
 34 36 0 0 0
SMALL
GASTEIGER

@<TRIPOS>ATOM
      1 O         141.9627  137.6243  164.8886 O.2     1  UNL1       -0.2701
      2 C         141.0867  137.8570  163.6934 C.2     1  UNL1        0.2474
      3 N         139.5945  137.8584  163.8460 N.am    1  UNL1       -0.3005
      4 H         139.0196  138.0111  163.0615 H       1  UNL1        0.1498
      5 C         141.7029  138.0882  162.3456 C.ar    1  UNL1        0.0727
      6 C         143.1953  138.0956  162.1944 C.ar    1  UNL1        0.0109
      7 C         143.8115  138.3269  160.8466 C.ar    1  UNL1        0.0579
      8 C         142.9354  138.5507  159.6498 C.ar    1  UNL1        0.2249
      9 N         141.4431  138.5433  159.8008 N.ar    1  UNL1       -0.2100
     10 C         140.8268  138.3121  161.1488 C.ar    1  UNL1        0.1065
     11 O         143.5517  138.7820  158.3020 O.3     1  UNL1       -0.4599
     12 C         142.7972  138.4130  157.0590 C.3     1  UNL1        0.2159
     13 C         143.4632  137.5952  155.9924 C.3     1  UNL1        0.1505
     14 C         143.6109  136.1126  156.1666 C.3     1  UNL1        0.4014
     15 F         143.7585  134.6301  156.3408 F       1  UNL1       -0.1699
     16 F         144.7273  136.1061  155.1650 F       1  UNL1       -0.1699
     17 F         142.4944  136.1191  157.1683 F       1  UNL1       -0.1699
     18 C         138.9782  137.6271  165.1939 C.3     1  UNL1        0.0944
     19 C         138.3155  138.7601  165.9199 C.3     1  UNL1        0.0476
     20 C         138.5181  140.1710  165.4527 C.ar    1  UNL1       -0.0204
     21 C         137.6927  140.7130  164.3236 C.ar    1  UNL1       -0.0042
     22 C         137.8953  142.1239  163.8564 C.ar    1  UNL1       -0.0003
     23 C         138.9234  142.9928  164.5183 C.ar    1  UNL1       -0.0000
     24 C         139.7488  142.4508  165.6473 C.ar    1  UNL1       -0.0003
     25 C         139.5462  141.0399  166.1145 C.ar    1  UNL1       -0.0024
     26 C         140.3717  140.4979  167.2437 C.ar    1  UNL1        0.0189
     27 C         141.8140  140.1521  167.0196 C.ar    1  UNL1        0.0028
     28 C         142.6394  139.6101  168.1486 C.ar    1  UNL1        0.0172
     29 CA        142.0226  139.4138  169.5018 C.ar    1  UNL1        0.0885
     30 N         140.5803  139.7596  169.7259 N.ar    1  UNL1       -0.2457
     31 C         139.7548  140.3016  168.5968 C.ar    1  UNL1        0.0985
     32 C         142.8481  138.8718  170.6309 C.3     1  UNL1        0.1829
     33 O         143.9614  139.6946  171.2083 O.3     1  UNL1       -0.3760
     34 H         144.6559  139.8123  170.5414 H       1  UNL1        0.2110
@<TRIPOS>BOND
     1     1     2    2
     2     2     3   am
     3     3    18    1
     4    18    19    1
     5    19    20    1
     6    20    21   ar
     7    21    22   ar
     8    22    23   ar
     9    23    24   ar
    10    24    25   ar
    11    25    26    1
    12    26    27   ar
    13    27    28   ar
    14    28    29   ar
    15    29    32    1
    16    32    33    1
    17    29    30   ar
    18    30    31   ar
    19     2     5    1
    20     5     6   ar
    21     6     7   ar
    22     7     8   ar
    23     8    11    1
    24    11    12    1
    25    12    13    1
    26    13    14    1
    27    14    15    1
    28    14    16    1
    29    14    17    1
    30     8     9   ar
    31     9    10   ar
    32    25    20   ar
    33    31    26   ar
    34    10     5   ar
    35     3     4    1
    36    33    34    1
@<TRIPOS>MOLECULE
*****
 34 36 0 0 0
SMALL
GASTEIGER

@<TRIPOS>ATOM
      1 O         141.1765  136.8208  164.4231 O.2     1  UNL1       -0.2701
      2 C         141.6421  138.1378  163.8764 C.2     1  UNL1        0.2474
      3 N         141.6510  139.3535  164.7549 N.am    1  UNL1       -0.3005
      4 H         141.9566  140.2179  164.3961 H       1  UNL1        0.1498
      5 C         142.0987  138.2390  162.4512 C.ar    1  UNL1        0.0727
      6 C         143.5588  138.3860  162.1401 C.ar    1  UNL1        0.0109
      7 C         144.0154  138.4872  160.7149 C.ar    1  UNL1        0.0579
      8 C         143.0121  138.4414  159.6008 C.ar    1  UNL1        0.2249
      9 N         141.5521  138.2944  159.9119 N.ar    1  UNL1       -0.2100
     10 C         141.0954  138.1932  161.3371 C.ar    1  UNL1        0.1065
     11 O         143.4688  138.5426  158.1756 O.3     1  UNL1       -0.4599
     12 C         142.7683  137.7581  157.1061 C.3     1  UNL1        0.2159
     13 C         142.9042  136.2650  157.0604 C.3     1  UNL1        0.1505
     14 C         143.1032  135.5698  155.7461 C.3     1  UNL1        0.4014
     15 F         143.3022  134.8746  154.4320 F       1  UNL1       -0.1699
     16 F         141.7288  134.9782  155.8509 F       1  UNL1       -0.1699
     17 F         144.4776  136.1614  155.6414 F       1  UNL1       -0.1699
     18 C         141.1943  139.2524  166.1801 C.3     1  UNL1        0.0944
     19 C         139.9316  139.9362  166.6134 C.3     1  UNL1        0.0476
     20 C         139.9304  140.8040  167.8370 C.ar    1  UNL1       -0.0204
     21 C         139.2839  140.3183  169.1003 C.ar    1  UNL1       -0.0042
     22 C         139.2828  141.1861  170.3238 C.ar    1  UNL1       -0.0003
     23 C         139.9280  142.5396  170.2838 C.ar    1  UNL1       -0.0000
     24 C         140.5744  143.0253  169.0205 C.ar    1  UNL1       -0.0003
     25 C         140.5756  142.1575  167.7970 C.ar    1  UNL1       -0.0024
     26 C         141.2220  142.6432  166.5336 C.ar    1  UNL1        0.0189
     27 C         142.6925  142.4407  166.3177 C.ar    1  UNL1        0.0028
     28 C         143.3390  142.9264  165.0543 C.ar    1  UNL1        0.0172
     29 CA        142.5149  143.6146  164.0067 C.ar    1  UNL1        0.0885
     30 N         141.0444  143.8171  164.2226 N.ar    1  UNL1       -0.2457
     31 C         140.3980  143.3314  165.4861 C.ar    1  UNL1        0.0985
     32 C         143.1614  144.1003  162.7433 C.3     1  UNL1        0.1829
     33 O         143.8372  145.4391  162.7133 O.3     1  UNL1       -0.3760
     34 H         143.1758  146.1380  162.8363 H       1  UNL1        0.2110
@<TRIPOS>BOND
     1     1     2    2
     2     2     3   am
     3     3    18    1
     4    18    19    1
     5    19    20    1
     6    20    21   ar
     7    21    22   ar
     8    22    23   ar
     9    23    24   ar
    10    24    25   ar
    11    25    26    1
    12    26    27   ar
    13    27    28   ar
    14    28    29   ar
    15    29    32    1
    16    32    33    1
    17    29    30   ar
    18    30    31   ar
    19     2     5    1
    20     5     6   ar
    21     6     7   ar
    22     7     8   ar
    23     8    11    1
    24    11    12    1
    25    12    13    1
    26    13    14    1
    27    14    15    1
    28    14    16    1
    29    14    17    1
    30     8     9   ar
    31     9    10   ar
    32    25    20   ar
    33    31    26   ar
    34    10     5   ar
    35     3     4    1
    36    33    34    1
@<TRIPOS>MOLECULE
*****
 34 36 0 0 0
SMALL
GASTEIGER

@<TRIPOS>ATOM
      1 O         142.8327  145.1384  163.9135 O.2     1  UNL1       -0.2701
      2 C         142.4003  143.8498  163.2790 C.2     1  UNL1        0.2474
      3 N         142.7061  142.5437  163.9502 N.am    1  UNL1       -0.3005
      4 H         142.4223  141.6979  163.5337 H       1  UNL1        0.1498
      5 C         141.6621  143.8673  161.9734 C.ar    1  UNL1        0.0727
      6 C         141.0214  145.1349  161.4909 C.ar    1  UNL1        0.0109
      7 C         140.2832  145.1524  160.1853 C.ar    1  UNL1        0.0579
      8 C         140.1857  143.9023  159.3620 C.ar    1  UNL1        0.2249
      9 N         140.8264  142.6348  159.8443 N.ar    1  UNL1       -0.2100
     10 C         141.5646  142.6172  161.1501 C.ar    1  UNL1        0.1065
     11 O         139.4476  143.9198  158.0564 O.3     1  UNL1       -0.4599
     12 C         140.0880  144.5216  156.8407 C.3     1  UNL1        0.2159
     13 C         139.2546  145.2836  155.8534 C.3     1  UNL1        0.1505
     14 C         139.0784  146.7654  156.0062 C.3     1  UNL1        0.4014
     15 F         138.9021  148.2471  156.1591 F       1  UNL1       -0.1699
     16 F         138.0178  146.7487  154.9456 F       1  UNL1       -0.1699
     17 F         140.1389  146.7820  157.0669 F       1  UNL1       -0.1699
     18 C         143.4443  142.5261  165.2559 C.3     1  UNL1        0.0944
     19 C         142.9967  141.6126  166.3583 C.3     1  UNL1        0.0476
     20 C         142.4184  142.1851  167.6184 C.ar    1  UNL1       -0.0204
     21 C         143.2718  142.3116  168.8454 C.ar    1  UNL1       -0.0042
     22 C         142.6935  142.8840  170.1055 C.ar    1  UNL1       -0.0003
     23 C         141.2617  143.3300  170.1385 C.ar    1  UNL1       -0.0000
     24 C         140.4082  143.2035  168.9115 C.ar    1  UNL1       -0.0003
     25 C         140.9866  142.6311  167.6514 C.ar    1  UNL1       -0.0024
     26 C         140.1332  142.5046  166.4243 C.ar    1  UNL1        0.0189
     27 C         139.7416  143.7304  165.6535 C.ar    1  UNL1        0.0028
     28 C         138.8882  143.6040  164.4265 C.ar    1  UNL1        0.0172
     29 CA        138.4263  142.2517  163.9701 C.ar    1  UNL1        0.0885
     30 N         138.8179  141.0259  164.7409 N.ar    1  UNL1       -0.2457
     31 C         139.6714  141.1524  165.9681 C.ar    1  UNL1        0.0985
     32 C         137.5729  142.1253  162.7431 C.3     1  UNL1        0.1829
     33 O         137.5132  143.2496  161.7520 O.3     1  UNL1       -0.3760
     34 H         137.0930  144.0211  162.1631 H       1  UNL1        0.2110
@<TRIPOS>BOND
     1     1     2    2
     2     2     3   am
     3     3    18    1
     4    18    19    1
     5    19    20    1
     6    20    21   ar
     7    21    22   ar
     8    22    23   ar
     9    23    24   ar
    10    24    25   ar
    11    25    26    1
    12    26    27   ar
    13    27    28   ar
    14    28    29   ar
    15    29    32    1
    16    32    33    1
    17    29    30   ar
    18    30    31   ar
    19     2     5    1
    20     5     6   ar
    21     6     7   ar
    22     7     8   ar
    23     8    11    1
    24    11    12    1
    25    12    13    1
    26    13    14    1
    27    14    15    1
    28    14    16    1
    29    14    17    1
    30     8     9   ar
    31     9    10   ar
    32    25    20   ar
    33    31    26   ar
    34    10     5   ar
    35     3     4    1
    36    33    34    1
@<TRIPOS>MOLECULE
*****
 34 36 0 0 0
SMALL
GASTEIGER

@<TRIPOS>ATOM
      1 O         137.9580  138.7209  162.1903 O.2     1  UNL1       -0.2701
      2 C         139.4331  138.5954  162.4320 C.2     1  UNL1        0.2474
      3 N         139.9738  138.6762  163.8288 N.am    1  UNL1       -0.3005
      4 H         140.9419  138.5939  163.9874 H       1  UNL1        0.1498
      5 C         140.3675  138.3892  161.2769 C.ar    1  UNL1        0.0727
      6 C         139.9075  138.6799  159.8790 C.ar    1  UNL1        0.0109
      7 C         140.8419  138.4737  158.7238 C.ar    1  UNL1        0.0579
      8 C         142.2362  137.9768  158.9665 C.ar    1  UNL1        0.2249
      9 N         142.6962  137.6861  160.3643 N.ar    1  UNL1       -0.2100
     10 C         141.7618  137.8923  161.5195 C.ar    1  UNL1        0.1065
     11 O         143.1706  137.7706  157.8114 O.3     1  UNL1       -0.4599
     12 C         142.7707  136.8794  156.6730 C.3     1  UNL1        0.2159
     13 C         143.6069  135.6830  156.3276 C.3     1  UNL1        0.1505
     14 C         143.1392  134.3077  156.7019 C.3     1  UNL1        0.4014
     15 F         142.6716  132.9325  157.0762 F       1  UNL1       -0.1699
     16 F         142.8454  134.0153  155.2603 F       1  UNL1       -0.1699
     17 F         143.4330  134.6001  158.1434 F       1  UNL1       -0.1699
     18 C         139.0394  138.8824  164.9840 C.3     1  UNL1        0.0944
     19 C         138.8031  140.2632  165.5202 C.3     1  UNL1        0.0476
     20 C         139.4560  140.6925  166.8007 C.ar    1  UNL1       -0.0204
     21 C         139.3833  139.8108  168.0119 C.ar    1  UNL1       -0.0042
     22 C         140.0362  140.2401  169.2923 C.ar    1  UNL1       -0.0003
     23 C         140.7617  141.5511  169.3614 C.ar    1  UNL1       -0.0000
     24 C         140.8344  142.4328  168.1501 C.ar    1  UNL1       -0.0003
     25 C         140.1815  142.0035  166.8698 C.ar    1  UNL1       -0.0024
     26 C         140.2542  142.8853  165.6584 C.ar    1  UNL1        0.0189
     27 C         139.2093  143.9376  165.4330 C.ar    1  UNL1        0.0028
     28 C         139.2819  144.8194  164.2218 C.ar    1  UNL1        0.0172
     29 CA        140.3994  144.6487  163.2357 C.ar    1  UNL1        0.0885
     30 N         141.4442  143.5963  163.4611 N.ar    1  UNL1       -0.2457
     31 C         141.3716  142.7146  164.6724 C.ar    1  UNL1        0.0985
     32 C         140.4720  145.5304  162.0244 C.3     1  UNL1        0.1829
     33 O         140.0410  146.9644  162.1137 O.3     1  UNL1       -0.3760
     34 H         139.0875  147.0052  162.2872 H       1  UNL1        0.2110
@<TRIPOS>BOND
     1     1     2    2
     2     2     3   am
     3     3    18    1
     4    18    19    1
     5    19    20    1
     6    20    21   ar
     7    21    22   ar
     8    22    23   ar
     9    23    24   ar
    10    24    25   ar
    11    25    26    1
    12    26    27   ar
    13    27    28   ar
    14    28    29   ar
    15    29    32    1
    16    32    33    1
    17    29    30   ar
    18    30    31   ar
    19     2     5    1
    20     5     6   ar
    21     6     7   ar
    22     7     8   ar
    23     8    11    1
    24    11    12    1
    25    12    13    1
    26    13    14    1
    27    14    15    1
    28    14    16    1
    29    14    17    1
    30     8     9   ar
    31     9    10   ar
    32    25    20   ar
    33    31    26   ar
    34    10     5   ar
    35     3     4    1
    36    33    34    1
@<TRIPOS>MOLECULE
*****
 34 36 0 0 0
SMALL
GASTEIGER

@<TRIPOS>ATOM
      1 O         144.2374  139.1712  162.2223 O.2     1  UNL1       -0.2701
      2 C         143.8075  140.4083  162.9535 C.2     1  UNL1        0.2474
      3 N         143.9036  140.4670  164.4492 N.am    1  UNL1       -0.3005
      4 H         143.6215  141.2790  164.9291 H       1  UNL1        0.1498
      5 C         143.2816  141.5868  162.1890 C.ar    1  UNL1        0.0727
      6 C         142.1781  141.4009  161.1900 C.ar    1  UNL1        0.0109
      7 C         141.6522  142.5794  160.4255 C.ar    1  UNL1        0.0579
      8 C         142.2296  143.9438  160.6599 C.ar    1  UNL1        0.2249
      9 N         143.3330  144.1297  161.6588 N.ar    1  UNL1       -0.2100
     10 C         143.8590  142.9512  162.4234 C.ar    1  UNL1        0.1065
     11 O         141.7037  145.1222  159.8954 O.3     1  UNL1       -0.4599
     12 C         140.3392  145.6657  160.2002 C.3     1  UNL1        0.2159
     13 C         139.9199  145.8846  161.6237 C.3     1  UNL1        0.1505
     14 C         139.2294  144.7881  162.3793 C.3     1  UNL1        0.4014
     15 F         138.5390  143.6916  163.1349 F       1  UNL1       -0.1699
     16 F         138.8959  144.1064  161.0855 F       1  UNL1       -0.1699
     17 F         139.5629  145.4697  163.6732 F       1  UNL1       -0.1699
     18 C         144.4296  139.2885  165.2138 C.3     1  UNL1        0.0944
     19 C         143.4774  138.3509  165.8951 C.3     1  UNL1        0.0476
     20 C         142.0371  138.3106  165.4779 C.ar    1  UNL1       -0.0204
     21 C         141.6038  137.4033  164.3649 C.ar    1  UNL1       -0.0042
     22 C         140.1635  137.3631  163.9478 C.ar    1  UNL1       -0.0003
     23 C         139.1566  138.2302  164.6437 C.ar    1  UNL1       -0.0000
     24 C         139.5900  139.1375  165.7568 C.ar    1  UNL1       -0.0003
     25 C         141.0302  139.1777  166.1739 C.ar    1  UNL1       -0.0024
     26 C         141.4636  140.0851  167.2870 C.ar    1  UNL1        0.0189
     27 C         141.5807  139.5541  168.6849 C.ar    1  UNL1        0.0028
     28 C         142.0141  140.4613  169.7980 C.ar    1  UNL1        0.0172
     29 CA        142.3304  141.8997  169.5132 C.ar    1  UNL1        0.0885
     30 N         142.2133  142.4307  168.1152 N.ar    1  UNL1       -0.2457
     31 C         141.7799  141.5234  167.0021 C.ar    1  UNL1        0.0985
     32 C         142.7638  142.8070  170.6262 C.3     1  UNL1        0.1829
     33 O         142.3050  142.5440  172.0299 O.3     1  UNL1       -0.3760
     34 H         141.3445  142.6675  172.0846 H       1  UNL1        0.2110
@<TRIPOS>BOND
     1     1     2    2
     2     2     3   am
     3     3    18    1
     4    18    19    1
     5    19    20    1
     6    20    21   ar
     7    21    22   ar
     8    22    23   ar
     9    23    24   ar
    10    24    25   ar
    11    25    26    1
    12    26    27   ar
    13    27    28   ar
    14    28    29   ar
    15    29    32    1
    16    32    33    1
    17    29    30   ar
    18    30    31   ar
    19     2     5    1
    20     5     6   ar
    21     6     7   ar
    22     7     8   ar
    23     8    11    1
    24    11    12    1
    25    12    13    1
    26    13    14    1
    27    14    15    1
    28    14    16    1
    29    14    17    1
    30     8     9   ar
    31     9    10   ar
    32    25    20   ar
    33    31    26   ar
    34    10     5   ar
    35     3     4    1
    36    33    34    1
@<TRIPOS>MOLECULE
*****
 34 36 0 0 0
SMALL
GASTEIGER

@<TRIPOS>ATOM
      1 O         145.5970  140.7652  163.8018 O.2     1  UNL1       -0.2701
      2 C         144.4021  140.1839  163.1059 C.2     1  UNL1        0.2474
      3 N         143.3713  139.4279  163.8906 N.am    1  UNL1       -0.3005
      4 H         142.5871  139.0464  163.4337 H       1  UNL1        0.1498
      5 C         144.2380  140.3587  161.6252 C.ar    1  UNL1        0.0727
      6 C         144.2747  141.7323  161.0235 C.ar    1  UNL1        0.0109
      7 C         144.1106  141.9071  159.5428 C.ar    1  UNL1        0.0579
      8 C         143.9098  140.7084  158.6637 C.ar    1  UNL1        0.2249
      9 N         143.8731  139.3348  159.2654 N.ar    1  UNL1       -0.2100
     10 C         144.0372  139.1600  160.7461 C.ar    1  UNL1        0.1065
     11 O         143.7457  140.8832  157.1831 O.3     1  UNL1       -0.4599
     12 C         144.9543  140.9471  156.2969 C.3     1  UNL1        0.2159
     13 C         145.7511  142.2147  156.2055 C.3     1  UNL1        0.1505
     14 C         147.2440  142.1739  156.3466 C.3     1  UNL1        0.4014
     15 F         148.7368  142.1332  156.4876 F       1  UNL1       -0.1699
     16 F         147.3439  141.3996  155.0658 F       1  UNL1       -0.1699
     17 F         147.1441  142.9482  157.6273 F       1  UNL1       -0.1699
     18 C         143.5354  139.2530  165.3713 C.3     1  UNL1        0.0944
     19 C         142.3510  139.4008  166.2798 C.3     1  UNL1        0.0476
     20 C         142.5084  140.0653  167.6154 C.ar    1  UNL1       -0.0204
     21 C         142.5984  139.2340  168.8607 C.ar    1  UNL1       -0.0042
     22 C         142.7558  139.8985  170.1962 C.ar    1  UNL1       -0.0003
     23 C         142.8232  141.3943  170.2863 C.ar    1  UNL1       -0.0000
     24 C         142.7332  142.2255  169.0410 C.ar    1  UNL1       -0.0003
     25 C         142.5758  141.5610  167.7055 C.ar    1  UNL1       -0.0024
     26 C         142.4857  142.3923  166.4601 C.ar    1  UNL1        0.0189
     27 C         143.7368  142.8861  165.7960 C.ar    1  UNL1        0.0028
     28 C         143.6468  143.7174  164.5507 C.ar    1  UNL1        0.0172
     29 CA        142.3058  144.0548  163.9694 C.ar    1  UNL1        0.0885
     30 N         141.0547  143.5610  164.6335 N.ar    1  UNL1       -0.2457
     31 C         141.1448  142.7297  165.8789 C.ar    1  UNL1        0.0985
     32 C         142.2158  144.8860  162.7240 C.3     1  UNL1        0.1829
     33 O         141.1066  145.8835  162.5665 O.3     1  UNL1       -0.3760
     34 H         140.2578  145.4172  162.5121 H       1  UNL1        0.2110
@<TRIPOS>BOND
     1     1     2    2
     2     2     3   am
     3     3    18    1
     4    18    19    1
     5    19    20    1
     6    20    21   ar
     7    21    22   ar
     8    22    23   ar
     9    23    24   ar
    10    24    25   ar
    11    25    26    1
    12    26    27   ar
    13    27    28   ar
    14    28    29   ar
    15    29    32    1
    16    32    33    1
    17    29    30   ar
    18    30    31   ar
    19     2     5    1
    20     5     6   ar
    21     6     7   ar
    22     7     8   ar
    23     8    11    1
    24    11    12    1
    25    12    13    1
    26    13    14    1
    27    14    15    1
    28    14    16    1
    29    14    17    1
    30     8     9   ar
    31     9    10   ar
    32    25    20   ar
    33    31    26   ar
    34    10     5   ar
    35     3     4    1
    36    33    34    1
@<TRIPOS>MOLECULE
*****
 34 36 0 0 0
SMALL
GASTEIGER

@<TRIPOS>ATOM
      1 O         140.8352  137.3272  162.9892 O.2     1  UNL1       -0.2701
      2 C         140.5688  138.7309  163.4462 C.2     1  UNL1        0.2474
      3 N         140.8163  139.8819  162.5168 N.am    1  UNL1       -0.3005
      4 H         140.6414  140.8032  162.8168 H       1  UNL1        0.1498
      5 C         140.0549  138.9834  164.8325 C.ar    1  UNL1        0.0727
      6 C         138.6996  138.4806  165.2332 C.ar    1  UNL1        0.0109
      7 C         138.1857  138.7332  166.6196 C.ar    1  UNL1        0.0579
      8 C         139.0270  139.4885  167.6053 C.ar    1  UNL1        0.2249
      9 N         140.3822  139.9913  167.2047 N.ar    1  UNL1       -0.2100
     10 C         140.8962  139.7388  165.8183 C.ar    1  UNL1        0.1065
     11 O         138.5131  139.7411  168.9917 O.3     1  UNL1       -0.4599
     12 C         139.2687  140.6470  169.9183 C.3     1  UNL1        0.2159
     13 C         140.3081  140.0800  170.8391 C.3     1  UNL1        0.1505
     14 C         141.7643  140.2872  170.5447 C.3     1  UNL1        0.4014
     15 F         143.2205  140.4942  170.2502 F       1  UNL1       -0.1699
     16 F         141.6909  141.6592  171.1464 F       1  UNL1       -0.1699
     17 F         141.8377  138.9151  169.9429 F       1  UNL1       -0.1699
     18 C         141.3302  139.6294  161.1304 C.3     1  UNL1        0.0944
     19 C         142.8076  139.5843  160.8748 C.3     1  UNL1        0.0476
     20 C         143.7586  140.1923  161.8627 C.ar    1  UNL1       -0.0204
     21 C         144.2506  139.3830  163.0259 C.ar    1  UNL1       -0.0042
     22 C         145.2015  139.9910  164.0138 C.ar    1  UNL1       -0.0003
     23 C         145.6605  141.4083  163.8385 C.ar    1  UNL1       -0.0000
     24 C         145.1685  142.2175  162.6754 C.ar    1  UNL1       -0.0003
     25 C         144.2175  141.6095  161.6875 C.ar    1  UNL1       -0.0024
     26 C         143.7255  142.4188  160.5242 C.ar    1  UNL1        0.0189
     27 C         144.3130  142.2061  159.1606 C.ar    1  UNL1        0.0028
     28 C         143.8210  143.0153  157.9974 C.ar    1  UNL1        0.0172
     29 CA        142.7414  144.0373  158.1978 C.ar    1  UNL1        0.0885
     30 N         142.1539  144.2501  159.5615 N.ar    1  UNL1       -0.2457
     31 C         142.6460  143.4408  160.7247 C.ar    1  UNL1        0.0985
     32 C         142.2495  144.8465  157.0346 C.3     1  UNL1        0.1829
     33 O         143.0925  144.9757  155.8007 O.3     1  UNL1       -0.3760
     34 H         143.9006  145.4691  156.0115 H       1  UNL1        0.2110
@<TRIPOS>BOND
     1     1     2    2
     2     2     3   am
     3     3    18    1
     4    18    19    1
     5    19    20    1
     6    20    21   ar
     7    21    22   ar
     8    22    23   ar
     9    23    24   ar
    10    24    25   ar
    11    25    26    1
    12    26    27   ar
    13    27    28   ar
    14    28    29   ar
    15    29    32    1
    16    32    33    1
    17    29    30   ar
    18    30    31   ar
    19     2     5    1
    20     5     6   ar
    21     6     7   ar
    22     7     8   ar
    23     8    11    1
    24    11    12    1
    25    12    13    1
    26    13    14    1
    27    14    15    1
    28    14    16    1
    29    14    17    1
    30     8     9   ar
    31     9    10   ar
    32    25    20   ar
    33    31    26   ar
    34    10     5   ar
    35     3     4    1
    36    33    34    1
@<TRIPOS>MOLECULE
*****
 34 36 0 0 0
SMALL
GASTEIGER

@<TRIPOS>ATOM
      1 O         144.1913  141.2776  164.9845 O.2     1  UNL1       -0.2701
      2 C         143.1213  141.4734  163.9517 C.2     1  UNL1        0.2474
      3 N         141.9276  142.3275  164.2610 N.am    1  UNL1       -0.3005
      4 H         141.2254  142.4560  163.5831 H       1  UNL1        0.1498
      5 C         143.2450  140.8152  162.6095 C.ar    1  UNL1        0.0727
      6 C         144.0294  139.5446  162.4667 C.ar    1  UNL1        0.0109
      7 C         144.1531  138.8864  161.1246 C.ar    1  UNL1        0.0579
      8 C         143.4924  139.4987  159.9252 C.ar    1  UNL1        0.2249
      9 N         142.7080  140.7692  160.0679 N.ar    1  UNL1       -0.2100
     10 C         142.5843  141.4275  161.4101 C.ar    1  UNL1        0.1065
     11 O         143.6161  138.8405  158.5830 O.3     1  UNL1       -0.4599
     12 C         142.5587  137.8845  158.1162 C.3     1  UNL1        0.2159
     13 C         142.6063  137.3364  156.7207 C.3     1  UNL1        0.1505
     14 C         142.3147  135.8858  156.4743 C.3     1  UNL1        0.4014
     15 F         142.0230  134.4353  156.2279 F       1  UNL1       -0.1699
     16 F         143.7634  135.5588  156.6845 F       1  UNL1       -0.1699
     17 F         140.8659  136.2128  156.2641 F       1  UNL1       -0.1699
     18 C         141.8039  142.9857  165.6032 C.3     1  UNL1        0.0944
     19 C         140.4760  143.0248  166.2998 C.3     1  UNL1        0.0476
     20 C         140.3224  142.4042  167.6567 C.ar    1  UNL1       -0.0204
     21 C         140.3347  143.2686  168.8826 C.ar    1  UNL1       -0.0042
     22 C         140.1811  142.6479  170.2394 C.ar    1  UNL1       -0.0003
     23 C         140.0151  141.1629  170.3705 C.ar    1  UNL1       -0.0000
     24 C         140.0027  140.2985  169.1447 C.ar    1  UNL1       -0.0003
     25 C         140.1564  140.9192  167.7878 C.ar    1  UNL1       -0.0024
     26 C         140.1440  140.0548  166.5619 C.ar    1  UNL1        0.0189
     27 C         141.3756  139.2945  166.1679 C.ar    1  UNL1        0.0028
     28 C         141.3633  138.4302  164.9421 C.ar    1  UNL1        0.0172
     29 CA        140.1194  138.3261  164.1102 C.ar    1  UNL1        0.0885
     30 N         138.8878  139.0863  164.5042 N.ar    1  UNL1       -0.2457
     31 C         138.9002  139.9507  165.7301 C.ar    1  UNL1        0.0985
     32 C         140.1071  137.4617  162.8843 C.3     1  UNL1        0.1829
     33 O         141.3952  136.9328  162.3266 O.3     1  UNL1       -0.3760
     34 H         141.9331  137.6708  161.9994 H       1  UNL1        0.2110
@<TRIPOS>BOND
     1     1     2    2
     2     2     3   am
     3     3    18    1
     4    18    19    1
     5    19    20    1
     6    20    21   ar
     7    21    22   ar
     8    22    23   ar
     9    23    24   ar
    10    24    25   ar
    11    25    26    1
    12    26    27   ar
    13    27    28   ar
    14    28    29   ar
    15    29    32    1
    16    32    33    1
    17    29    30   ar
    18    30    31   ar
    19     2     5    1
    20     5     6   ar
    21     6     7   ar
    22     7     8   ar
    23     8    11    1
    24    11    12    1
    25    12    13    1
    26    13    14    1
    27    14    15    1
    28    14    16    1
    29    14    17    1
    30     8     9   ar
    31     9    10   ar
    32    25    20   ar
    33    31    26   ar
    34    10     5   ar
    35     3     4    1
    36    33    34    1
