@<TRIPOS>MOLECULE
*****
 42 46 0 0 0
SMALL
GASTEIGER

@<TRIPOS>ATOM
      1 C         140.6011  139.1419  157.6470 C.3     1  UNL1        0.1035
      2 C         140.8909  140.2321  158.6357 C.3     1  UNL1        0.0933
      3 N         139.8920  139.6377  159.5838 N.3     1  UNL1       -0.2711
      4 C         139.6021  138.5476  158.5951 C.3     1  UNL1        0.0933
      5 C         139.3906  139.9882  160.9534 C.3     1  UNL1        0.0578
      6 C         138.1995  140.8866  161.1088 C.3     1  UNL1        0.0187
      7 C         137.6981  141.2371  162.4784 C.3     1  UNL1        0.0326
      8 C         138.3878  140.6893  163.6925 C.3     1  UNL1        0.1085
      9 O         137.3057  141.4945  164.3487 O.3     1  UNL1       -0.3826
     10 C         139.5789  139.7910  163.5371 C.3     1  UNL1        0.0326
     11 C         140.0803  139.4404  162.1676 C.3     1  UNL1        0.0187
     12 H         136.7618  141.9206  163.6680 H       1  UNL1        0.2107
     13 C         138.7018  140.4211  165.1346 C.ar    1  UNL1        0.0211
     14 C         139.6368  141.3271  165.8796 C.ar    1  UNL1        0.0043
     15 C         139.9507  141.0589  167.3217 C.ar    1  UNL1        0.0575
     16 C         139.3297  139.8848  168.0187 C.ar    1  UNL1        0.2247
     17 N         138.3948  138.9789  167.2737 N.ar    1  UNL1       -0.2104
     18 C         138.0807  139.2470  165.8316 C.ar    1  UNL1        0.1000
     19 O         139.6437  139.6167  169.4607 O.3     1  UNL1       -0.4640
     20 C         141.0299  139.8522  169.9828 C.3     1  UNL1        0.1676
     21 C         142.3556  139.1699  169.8180 C.3     1  UNL1        0.0437
     22 C         142.9906  140.1853  170.7213 C.3     1  UNL1        0.0074
     23 C         141.6649  140.8676  170.8861 C.3     1  UNL1        0.0437
     24 O         143.3698  138.0402  157.2997 O.2     1  UNL1       -0.2733
     25 C         142.4869  138.2406  156.1037 C.2     1  UNL1        0.2426
     26 N         141.1026  138.7914  156.2774 N.am    1  UNL1       -0.3018
     27 H         140.5231  138.9229  155.4924 H       1  UNL1        0.1495
     28 C         142.9882  137.8901  154.7342 C.3     1  UNL1        0.1759
     29 N         143.2847  136.4612  154.3869 N.am    1  UNL1       -0.2931
     30 C         142.2351  135.4080  154.5848 C.2     1  UNL1        0.2462
     31 O         140.8891  135.7836  155.1300 O.2     1  UNL1       -0.2701
     32 H         144.1681  136.2147  154.0291 H       1  UNL1        0.1502
     33 C         142.5316  133.9791  154.2375 C.ar    1  UNL1        0.0533
     34 C         142.0843  133.4193  152.9198 C.ar    1  UNL1        0.0045
     35 C         142.3807  131.9905  152.5726 C.ar    1  UNL1        0.0001
     36 C         143.1244  131.1215  153.5431 C.ar    1  UNL1        0.0039
     37 C         143.5717  131.6814  154.8608 C.ar    1  UNL1        0.0716
     38 C         143.2753  133.1102  155.2080 C.ar    1  UNL1        0.0084
     39 C         144.3154  130.8125  155.8313 C.3     1  UNL1        0.4186
     40 F         145.0591  129.9436  156.8018 F       1  UNL1       -0.1659
     41 F         143.3346  129.7036  155.5901 F       1  UNL1       -0.1659
     42 F         145.2962  131.9215  156.0726 F       1  UNL1       -0.1659
@<TRIPOS>BOND
     1    24    25    2
     2    25    28    1
     3    28    29    1
     4    29    30   am
     5    30    31    2
     6    30    33    1
     7    33    34   ar
     8    34    35   ar
     9    35    36   ar
    10    36    37   ar
    11    37    39    1
    12    39    40    1
    13    39    41    1
    14    39    42    1
    15    37    38   ar
    16    25    26   am
    17    26     1    1
    18     1     2    1
    19     2     3    1
    20     5     3    1
    21     5     6    1
    22     6     7    1
    23     7     8    1
    24     8     9    1
    25     8    13    1
    26    13    14   ar
    27    14    15   ar
    28    15    16   ar
    29    16    19    1
    30    19    20    1
    31    20    21    1
    32    21    22    1
    33    22    23    1
    34    16    17   ar
    35    17    18   ar
    36     8    10    1
    37    10    11    1
    38     3     4    1
    39    38    33   ar
    40     4     1    1
    41    11     5    1
    42    18    13   ar
    43    23    20    1
    44    29    32    1
    45    26    27    1
    46     9    12    1
@<TRIPOS>MOLECULE
*****
 42 46 0 0 0
SMALL
GASTEIGER

@<TRIPOS>ATOM
      1 C         138.4990  140.1888  158.2490 C.3     1  UNL1        0.1035
      2 C         138.2706  139.8826  159.6995 C.3     1  UNL1        0.0933
      3 N         139.7417  140.0177  159.9597 N.3     1  UNL1       -0.2711
      4 C         139.9701  140.3238  158.5091 C.3     1  UNL1        0.0933
      5 C         140.6203  139.8967  161.1693 C.3     1  UNL1        0.0578
      6 C         141.8383  139.0221  161.1272 C.3     1  UNL1        0.0187
      7 C         142.7169  138.9012  162.3369 C.3     1  UNL1        0.0326
      8 C         142.3777  139.6548  163.5887 C.3     1  UNL1        0.1085
      9 O         143.6286  138.9579  164.0351 O.3     1  UNL1       -0.3826
     10 C         141.1598  140.5293  163.6308 C.3     1  UNL1        0.0326
     11 C         140.2811  140.6503  162.4212 C.3     1  UNL1        0.0187
     12 H         143.9738  138.4160  163.3084 H       1  UNL1        0.2107
     13 C         142.4729  140.1664  164.9955 C.ar    1  UNL1        0.0211
     14 C         142.1596  139.2574  166.1469 C.ar    1  UNL1        0.0043
     15 C         142.2548  139.7690  167.5538 C.ar    1  UNL1        0.0575
     16 C         142.6633  141.1895  167.8092 C.ar    1  UNL1        0.2247
     17 N         142.9765  142.0985  166.6579 N.ar    1  UNL1       -0.2104
     18 C         142.8813  141.5869  165.2510 C.ar    1  UNL1        0.1000
     19 O         142.7584  141.7010  169.2161 O.3     1  UNL1       -0.4640
     20 C         141.5488  142.2820  169.8864 C.3     1  UNL1        0.1676
     21 C         140.6461  143.4497  169.6189 C.3     1  UNL1        0.0437
     22 C         139.8381  143.1036  170.8344 C.3     1  UNL1        0.0074
     23 C         140.7409  141.9359  171.1019 C.3     1  UNL1        0.0437
     24 O         137.5145  142.8840  157.3735 O.2     1  UNL1       -0.2733
     25 C         137.1280  141.6573  156.6016 C.2     1  UNL1        0.2426
     26 N         137.6203  140.3097  157.0393 N.am    1  UNL1       -0.3018
     27 H         137.3666  139.5046  156.5326 H       1  UNL1        0.1495
     28 C         136.2493  141.7782  155.3920 C.3     1  UNL1        0.1759
     29 N         134.7572  141.7511  155.5432 N.am    1  UNL1       -0.2931
     30 C         134.0582  140.4608  155.8537 C.2     1  UNL1        0.2462
     31 O         134.8513  139.1976  156.0132 O.2     1  UNL1       -0.2701
     32 H         134.2366  142.5801  155.4385 H       1  UNL1        0.1502
     33 C         132.5660  140.4336  156.0049 C.ar    1  UNL1        0.0533
     34 C         131.7269  141.4933  155.3547 C.ar    1  UNL1        0.0045
     35 C         130.2348  141.4660  155.5058 C.ar    1  UNL1        0.0001
     36 C         129.5819  140.3791  156.3073 C.ar    1  UNL1        0.0039
     37 C         130.4210  139.3194  156.9575 C.ar    1  UNL1        0.0716
     38 C         131.9131  139.3467  156.8063 C.ar    1  UNL1        0.0084
     39 C         129.7681  138.2325  157.7590 C.3     1  UNL1        0.4186
     40 F         129.1151  137.1456  158.5604 F       1  UNL1       -0.1659
     41 F         129.5387  139.1991  158.8829 F       1  UNL1       -0.1659
     42 F         129.9974  137.2660  156.6350 F       1  UNL1       -0.1659
@<TRIPOS>BOND
     1    24    25    2
     2    25    28    1
     3    28    29    1
     4    29    30   am
     5    30    31    2
     6    30    33    1
     7    33    34   ar
     8    34    35   ar
     9    35    36   ar
    10    36    37   ar
    11    37    39    1
    12    39    40    1
    13    39    41    1
    14    39    42    1
    15    37    38   ar
    16    25    26   am
    17    26     1    1
    18     1     2    1
    19     2     3    1
    20     5     3    1
    21     5     6    1
    22     6     7    1
    23     7     8    1
    24     8     9    1
    25     8    13    1
    26    13    14   ar
    27    14    15   ar
    28    15    16   ar
    29    16    19    1
    30    19    20    1
    31    20    21    1
    32    21    22    1
    33    22    23    1
    34    16    17   ar
    35    17    18   ar
    36     8    10    1
    37    10    11    1
    38     3     4    1
    39    38    33   ar
    40     4     1    1
    41    11     5    1
    42    18    13   ar
    43    23    20    1
    44    29    32    1
    45    26    27    1
    46     9    12    1
@<TRIPOS>MOLECULE
*****
 42 46 0 0 0
SMALL
GASTEIGER

@<TRIPOS>ATOM
      1 C         141.3142  139.3771  160.8324 C.3     1  UNL1        0.1035
      2 C         141.1844  140.6637  161.5926 C.3     1  UNL1        0.0933
      3 N         141.1309  139.8972  162.8808 N.3     1  UNL1       -0.2711
      4 C         141.2606  138.6105  162.1207 C.3     1  UNL1        0.0933
      5 C         141.0013  140.2649  164.3292 C.3     1  UNL1        0.0578
      6 C         139.8629  139.7227  165.1418 C.3     1  UNL1        0.0187
      7 C         139.7334  140.0905  166.5902 C.3     1  UNL1        0.0326
      8 C         140.7421  141.0004  167.2261 C.3     1  UNL1        0.1085
      9 O         139.8461  140.7432  168.4012 O.3     1  UNL1       -0.3826
     10 C         141.8805  141.5426  166.4136 C.3     1  UNL1        0.0326
     11 C         142.0101  141.1749  164.9652 C.3     1  UNL1        0.0187
     12 H         139.1247  140.1521  168.1345 H       1  UNL1        0.2107
     13 C         141.4397  141.8211  168.2701 C.ar    1  UNL1        0.0211
     14 C         140.6493  142.7415  169.1523 C.ar    1  UNL1        0.0043
     15 C         141.3469  143.5621  170.1963 C.ar    1  UNL1        0.0575
     16 C         142.8349  143.4623  170.3581 C.ar    1  UNL1        0.2247
     17 N         143.6252  142.5420  169.4760 N.ar    1  UNL1       -0.2104
     18 C         142.9277  141.7213  168.4319 C.ar    1  UNL1        0.1000
     19 O         143.5323  144.2830  171.4021 O.3     1  UNL1       -0.4640
     20 C         145.0073  144.5347  171.2966 C.3     1  UNL1        0.1676
     21 C         146.1887  143.7367  170.8302 C.3     1  UNL1        0.0437
     22 C         147.0933  144.8905  171.1474 C.3     1  UNL1        0.0074
     23 C         145.9119  145.6884  171.6138 C.3     1  UNL1        0.0437
     24 O         138.8934  139.3848  159.0604 O.2     1  UNL1       -0.2733
     25 C         140.2334  139.0133  158.4980 C.2     1  UNL1        0.2426
     26 N         141.4438  139.0094  159.3839 N.am    1  UNL1       -0.3018
     27 H         142.3232  138.7655  159.0148 H       1  UNL1        0.1495
     28 C         140.3630  138.6456  157.0495 C.3     1  UNL1        0.1759
     29 N         140.7022  137.2370  156.6607 N.am    1  UNL1       -0.2931
     30 C         142.1173  136.7505  156.7642 C.2     1  UNL1        0.2462
     31 O         143.1933  137.6724  157.2564 O.2     1  UNL1       -0.2701
     32 H         139.9960  136.6319  156.3377 H       1  UNL1        0.1502
     33 C         142.4564  135.3419  156.3754 C.ar    1  UNL1        0.0533
     34 C         141.7531  134.6926  155.2205 C.ar    1  UNL1        0.0045
     35 C         142.0922  133.2842  154.8318 C.ar    1  UNL1        0.0001
     36 C         143.1347  132.5250  155.5979 C.ar    1  UNL1        0.0039
     37 C         143.8381  133.1743  156.7527 C.ar    1  UNL1        0.0716
     38 C         143.4989  134.5828  157.1414 C.ar    1  UNL1        0.0084
     39 C         144.8806  132.4152  157.5187 C.3     1  UNL1        0.4186
     40 F         145.9231  131.6560  158.2848 F       1  UNL1       -0.1659
     41 F         144.7456  133.3804  158.6590 F       1  UNL1       -0.1659
     42 F         145.0156  131.4500  156.3785 F       1  UNL1       -0.1659
@<TRIPOS>BOND
     1    24    25    2
     2    25    28    1
     3    28    29    1
     4    29    30   am
     5    30    31    2
     6    30    33    1
     7    33    34   ar
     8    34    35   ar
     9    35    36   ar
    10    36    37   ar
    11    37    39    1
    12    39    40    1
    13    39    41    1
    14    39    42    1
    15    37    38   ar
    16    25    26   am
    17    26     1    1
    18     1     2    1
    19     2     3    1
    20     5     3    1
    21     5     6    1
    22     6     7    1
    23     7     8    1
    24     8     9    1
    25     8    13    1
    26    13    14   ar
    27    14    15   ar
    28    15    16   ar
    29    16    19    1
    30    19    20    1
    31    20    21    1
    32    21    22    1
    33    22    23    1
    34    16    17   ar
    35    17    18   ar
    36     8    10    1
    37    10    11    1
    38     3     4    1
    39    38    33   ar
    40     4     1    1
    41    11     5    1
    42    18    13   ar
    43    23    20    1
    44    29    32    1
    45    26    27    1
    46     9    12    1
@<TRIPOS>MOLECULE
*****
 42 46 0 0 0
SMALL
GASTEIGER

@<TRIPOS>ATOM
      1 C         140.6077  138.2595  158.0143 C.3     1  UNL1        0.1035
      2 C         139.4047  139.0371  158.4595 C.3     1  UNL1        0.0933
      3 N         139.9465  139.0748  159.8577 N.3     1  UNL1       -0.2711
      4 C         141.1495  138.2973  159.4125 C.3     1  UNL1        0.0933
      5 C         139.4790  139.6513  161.1611 C.3     1  UNL1        0.0578
      6 C         138.0822  140.1830  161.2881 C.3     1  UNL1        0.0187
      7 C         137.6147  140.7595  162.5917 C.3     1  UNL1        0.0326
      8 C         138.5441  140.8044  163.7682 C.3     1  UNL1        0.1085
      9 O         137.3227  141.4266  164.3771 O.3     1  UNL1       -0.3826
     10 C         139.9410  140.2727  163.6412 C.3     1  UNL1        0.0326
     11 C         140.4084  139.6962  162.3377 C.3     1  UNL1        0.0187
     12 H         136.6153  141.4661  163.7146 H       1  UNL1        0.2107
     13 C         139.0493  141.0653  165.1562 C.ar    1  UNL1        0.0211
     14 C         139.0190  139.9724  166.1832 C.ar    1  UNL1        0.0043
     15 C         139.5242  140.2334  167.5712 C.ar    1  UNL1        0.0575
     16 C         140.0597  141.5873  167.9322 C.ar    1  UNL1        0.2247
     17 N         140.0900  142.6801  166.9053 N.ar    1  UNL1       -0.2104
     18 C         139.5848  142.4192  165.5172 C.ar    1  UNL1        0.1000
     19 O         140.5649  141.8482  169.3203 O.3     1  UNL1       -0.4640
     20 C         142.0197  142.1342  169.5476 C.3     1  UNL1        0.1676
     21 C         142.7921  143.0529  170.4473 C.3     1  UNL1        0.0437
     22 C         144.0772  142.5387  169.8692 C.3     1  UNL1        0.0074
     23 C         143.3048  141.6201  168.9695 C.3     1  UNL1        0.0437
     24 O         138.6385  136.9782  156.1486 O.2     1  UNL1       -0.2733
     25 C         140.0906  137.0424  155.7779 C.2     1  UNL1        0.2426
     26 N         141.0752  137.6830  156.7107 N.am    1  UNL1       -0.3018
     27 H         142.0282  137.7251  156.4674 H       1  UNL1        0.1495
     28 C         140.5581  136.4659  154.4744 C.3     1  UNL1        0.1759
     29 N         141.0614  135.0540  154.4163 N.am    1  UNL1       -0.2931
     30 C         142.4251  134.7216  154.9453 C.2     1  UNL1        0.2462
     31 O         143.2855  135.8009  155.5324 O.2     1  UNL1       -0.2701
     32 H         140.4967  134.3456  154.0309 H       1  UNL1        0.1502
     33 C         142.9284  133.3097  154.8871 C.ar    1  UNL1        0.0533
     34 C         142.7637  132.5058  153.6314 C.ar    1  UNL1        0.0045
     35 C         143.2670  131.0940  153.5733 C.ar    1  UNL1        0.0001
     36 C         143.9351  130.4861  154.7709 C.ar    1  UNL1        0.0039
     37 C         144.0998  131.2899  156.0265 C.ar    1  UNL1        0.0716
     38 C         143.5965  132.7017  156.0846 C.ar    1  UNL1        0.0084
     39 C         144.7678  130.6819  157.2240 C.3     1  UNL1        0.4186
     40 F         145.4359  130.0739  158.4216 F       1  UNL1       -0.1659
     41 F         145.4739  131.9787  157.4885 F       1  UNL1       -0.1659
     42 F         144.0618  129.3852  156.9596 F       1  UNL1       -0.1659
@<TRIPOS>BOND
     1    24    25    2
     2    25    28    1
     3    28    29    1
     4    29    30   am
     5    30    31    2
     6    30    33    1
     7    33    34   ar
     8    34    35   ar
     9    35    36   ar
    10    36    37   ar
    11    37    39    1
    12    39    40    1
    13    39    41    1
    14    39    42    1
    15    37    38   ar
    16    25    26   am
    17    26     1    1
    18     1     2    1
    19     2     3    1
    20     5     3    1
    21     5     6    1
    22     6     7    1
    23     7     8    1
    24     8     9    1
    25     8    13    1
    26    13    14   ar
    27    14    15   ar
    28    15    16   ar
    29    16    19    1
    30    19    20    1
    31    20    21    1
    32    21    22    1
    33    22    23    1
    34    16    17   ar
    35    17    18   ar
    36     8    10    1
    37    10    11    1
    38     3     4    1
    39    38    33   ar
    40     4     1    1
    41    11     5    1
    42    18    13   ar
    43    23    20    1
    44    29    32    1
    45    26    27    1
    46     9    12    1
@<TRIPOS>MOLECULE
*****
 42 46 0 0 0
SMALL
GASTEIGER

@<TRIPOS>ATOM
      1 C         140.8031  142.0293  160.3375 C.3     1  UNL1        0.1035
      2 C         139.7885  143.1262  160.2053 C.3     1  UNL1        0.0933
      3 N         140.2408  143.3748  158.7969 N.3     1  UNL1       -0.2711
      4 C         141.2553  142.2779  158.9291 C.3     1  UNL1        0.0933
      5 C         139.8432  144.3262  157.7075 C.3     1  UNL1        0.0578
      6 C         138.8443  143.9045  156.6711 C.3     1  UNL1        0.0187
      7 C         138.4467  144.8560  155.5817 C.3     1  UNL1        0.0326
      8 C         139.0481  146.2291  155.5288 C.3     1  UNL1        0.1085
      9 O         138.1497  146.2918  154.3293 O.3     1  UNL1       -0.3826
     10 C         140.0471  146.6508  156.5652 C.3     1  UNL1        0.0326
     11 C         140.4447  145.6994  157.6546 C.3     1  UNL1        0.0187
     12 H         137.6802  145.4485  154.2325 H       1  UNL1        0.2107
     13 C         139.3375  147.6240  155.0593 C.ar    1  UNL1        0.0211
     14 C         138.6920  148.7939  155.7410 C.ar    1  UNL1        0.0043
     15 C         138.9814  150.1888  155.2715 C.ar    1  UNL1        0.0575
     16 C         139.9163  150.4138  154.1203 C.ar    1  UNL1        0.2247
     17 N         140.5618  149.2441  153.4386 N.ar    1  UNL1       -0.2104
     18 C         140.2725  147.8490  153.9080 C.ar    1  UNL1        0.1000
     19 O         140.2057  151.8088  153.6509 O.3     1  UNL1       -0.4640
     20 C         141.5799  152.3864  153.8175 C.3     1  UNL1        0.1676
     21 C         142.8810  151.8854  154.3707 C.3     1  UNL1        0.0437
     22 C         143.5235  153.2032  154.0532 C.3     1  UNL1        0.0074
     23 C         142.2223  153.7041  153.5000 C.3     1  UNL1        0.0437
     24 O         140.4904  139.0729  159.9351 O.2     1  UNL1       -0.2733
     25 C         141.0443  139.5997  161.2258 C.2     1  UNL1        0.2426
     26 N         141.2006  141.0779  161.4269 N.am    1  UNL1       -0.3018
     27 H         141.5641  141.4236  162.2740 H       1  UNL1        0.1495
     28 C         141.4418  138.6484  162.3152 C.3     1  UNL1        0.1759
     29 N         140.5882  138.5130  163.5412 N.am    1  UNL1       -0.2931
     30 C         140.6235  139.5743  164.6006 C.2     1  UNL1        0.2462
     31 O         141.5125  140.7710  164.4341 O.2     1  UNL1       -0.2701
     32 H         140.0047  137.7277  163.6505 H       1  UNL1        0.1502
     33 C         139.7699  139.4390  165.8266 C.ar    1  UNL1        0.0533
     34 C         138.5133  138.6213  165.7791 C.ar    1  UNL1        0.0045
     35 C         137.6597  138.4860  167.0050 C.ar    1  UNL1        0.0001
     36 C         138.0627  139.1684  168.2786 C.ar    1  UNL1        0.0039
     37 C         139.3193  139.9861  168.3261 C.ar    1  UNL1        0.0716
     38 C         140.1729  140.1214  167.1001 C.ar    1  UNL1        0.0084
     39 C         139.7223  140.6686  169.5996 C.3     1  UNL1        0.4186
     40 F         140.1253  141.3510  170.8732 F       1  UNL1       -0.1659
     41 F         141.1326  140.7702  169.0989 F       1  UNL1       -0.1659
     42 F         138.3120  140.5670  170.1004 F       1  UNL1       -0.1659
@<TRIPOS>BOND
     1    24    25    2
     2    25    28    1
     3    28    29    1
     4    29    30   am
     5    30    31    2
     6    30    33    1
     7    33    34   ar
     8    34    35   ar
     9    35    36   ar
    10    36    37   ar
    11    37    39    1
    12    39    40    1
    13    39    41    1
    14    39    42    1
    15    37    38   ar
    16    25    26   am
    17    26     1    1
    18     1     2    1
    19     2     3    1
    20     5     3    1
    21     5     6    1
    22     6     7    1
    23     7     8    1
    24     8     9    1
    25     8    13    1
    26    13    14   ar
    27    14    15   ar
    28    15    16   ar
    29    16    19    1
    30    19    20    1
    31    20    21    1
    32    21    22    1
    33    22    23    1
    34    16    17   ar
    35    17    18   ar
    36     8    10    1
    37    10    11    1
    38     3     4    1
    39    38    33   ar
    40     4     1    1
    41    11     5    1
    42    18    13   ar
    43    23    20    1
    44    29    32    1
    45    26    27    1
    46     9    12    1
@<TRIPOS>MOLECULE
*****
 42 46 0 0 0
SMALL
GASTEIGER

@<TRIPOS>ATOM
      1 C         143.0851  138.5518  156.6568 C.3     1  UNL1        0.1035
      2 C         143.6751  137.4936  155.7725 C.3     1  UNL1        0.0933
      3 N         142.9144  136.4416  156.5238 N.3     1  UNL1       -0.2711
      4 C         142.3244  137.4998  157.4082 C.3     1  UNL1        0.0933
      5 C         142.7937  134.9494  156.4298 C.3     1  UNL1        0.0578
      6 C         141.7825  134.3354  155.5077 C.3     1  UNL1        0.0187
      7 C         141.6618  132.8432  155.4137 C.3     1  UNL1        0.0326
      8 C         142.5524  131.9651  156.2417 C.3     1  UNL1        0.1085
      9 O         141.7541  130.9200  155.5202 O.3     1  UNL1       -0.3826
     10 C         143.5637  132.5791  157.1638 C.3     1  UNL1        0.0326
     11 C         143.6843  134.0712  157.2579 C.3     1  UNL1        0.0187
     12 H         141.1165  131.3508  154.9296 H       1  UNL1        0.2107
     13 C         143.1658  130.7240  156.8192 C.ar    1  UNL1        0.0211
     14 C         144.2614  130.8331  157.8380 C.ar    1  UNL1        0.0043
     15 C         144.8748  129.5920  158.4154 C.ar    1  UNL1        0.0575
     16 C         144.3925  128.2419  157.9742 C.ar    1  UNL1        0.2247
     17 N         143.2970  128.1328  156.9556 N.ar    1  UNL1       -0.2104
     18 C         142.6835  129.3738  156.3780 C.ar    1  UNL1        0.1000
     19 O         145.0060  127.0009  158.5518 O.3     1  UNL1       -0.4640
     20 C         146.0490  127.1090  159.6243 C.3     1  UNL1        0.1676
     21 C         146.0368  127.0675  161.1237 C.3     1  UNL1        0.0437
     22 C         147.5241  127.2618  161.1412 C.3     1  UNL1        0.0074
     23 C         147.5363  127.3033  159.6418 C.3     1  UNL1        0.0437
     24 O         144.1239  139.8174  159.1707 O.2     1  UNL1       -0.2733
     25 C         143.7252  140.6768  158.0078 C.2     1  UNL1        0.2426
     26 N         143.2058  140.0441  156.7509 N.am    1  UNL1       -0.3018
     27 H         142.9442  140.6081  155.9876 H       1  UNL1        0.1495
     28 C         143.8459  142.1689  158.1017 C.3     1  UNL1        0.1759
     29 N         143.1616  142.9083  159.2131 N.am    1  UNL1       -0.2931
     30 C         143.8440  143.0680  160.5393 C.2     1  UNL1        0.2462
     31 O         145.2107  142.4884  160.7541 O.2     1  UNL1       -0.2701
     32 H         142.2646  143.2887  159.0722 H       1  UNL1        0.1502
     33 C         143.1597  143.8073  161.6507 C.ar    1  UNL1        0.0533
     34 C         143.9665  144.3844  162.7758 C.ar    1  UNL1        0.0045
     35 C         143.2822  145.1237  163.8872 C.ar    1  UNL1        0.0001
     36 C         141.7911  145.2859  163.8734 C.ar    1  UNL1        0.0039
     37 C         140.9842  144.7088  162.7483 C.ar    1  UNL1        0.0716
     38 C         141.6685  143.9695  161.6370 C.ar    1  UNL1        0.0084
     39 C         139.4931  144.8709  162.7346 C.3     1  UNL1        0.4186
     40 F         138.0019  145.0331  162.7208 F       1  UNL1       -0.1659
     41 F         139.4991  145.0523  164.2235 F       1  UNL1       -0.1659
     42 F         139.4871  144.6895  161.2456 F       1  UNL1       -0.1659
@<TRIPOS>BOND
     1    24    25    2
     2    25    28    1
     3    28    29    1
     4    29    30   am
     5    30    31    2
     6    30    33    1
     7    33    34   ar
     8    34    35   ar
     9    35    36   ar
    10    36    37   ar
    11    37    39    1
    12    39    40    1
    13    39    41    1
    14    39    42    1
    15    37    38   ar
    16    25    26   am
    17    26     1    1
    18     1     2    1
    19     2     3    1
    20     5     3    1
    21     5     6    1
    22     6     7    1
    23     7     8    1
    24     8     9    1
    25     8    13    1
    26    13    14   ar
    27    14    15   ar
    28    15    16   ar
    29    16    19    1
    30    19    20    1
    31    20    21    1
    32    21    22    1
    33    22    23    1
    34    16    17   ar
    35    17    18   ar
    36     8    10    1
    37    10    11    1
    38     3     4    1
    39    38    33   ar
    40     4     1    1
    41    11     5    1
    42    18    13   ar
    43    23    20    1
    44    29    32    1
    45    26    27    1
    46     9    12    1
@<TRIPOS>MOLECULE
*****
 42 46 0 0 0
SMALL
GASTEIGER

@<TRIPOS>ATOM
      1 C         143.1269  142.3336  160.0857 C.3     1  UNL1        0.1035
      2 C         143.4308  143.1883  158.8911 C.3     1  UNL1        0.0933
      3 N         144.4264  142.1715  158.4168 N.3     1  UNL1       -0.2711
      4 C         144.1225  141.3168  159.6114 C.3     1  UNL1        0.0933
      5 C         145.3452  142.0569  157.2368 C.3     1  UNL1        0.0578
      6 C         144.9003  141.3194  156.0087 C.3     1  UNL1        0.0187
      7 C         145.8192  141.2048  154.8286 C.3     1  UNL1        0.0326
      8 C         147.1829  141.8278  154.8766 C.3     1  UNL1        0.1085
      9 O         147.2155  141.2351  153.4991 O.3     1  UNL1       -0.3826
     10 C         147.6277  142.5654  156.1046 C.3     1  UNL1        0.0326
     11 C         146.7089  142.6800  157.2847 C.3     1  UNL1        0.0187
     12 H         146.3748  140.7854  153.3205 H       1  UNL1        0.2107
     13 C         148.5579  142.2450  154.4461 C.ar    1  UNL1        0.0211
     14 C         149.7644  141.6416  155.1021 C.ar    1  UNL1        0.0043
     15 C         151.1394  142.0587  154.6717 C.ar    1  UNL1        0.0575
     16 C         151.3079  143.0793  153.5853 C.ar    1  UNL1        0.2247
     17 N         150.1015  143.6826  152.9294 N.ar    1  UNL1       -0.2104
     18 C         148.7264  143.2655  153.3598 C.ar    1  UNL1        0.1000
     19 O         152.6830  143.4964  153.1549 O.3     1  UNL1       -0.4640
     20 C         153.4665  144.4686  153.9861 C.3     1  UNL1        0.1676
     21 C         153.4495  144.8872  155.4264 C.3     1  UNL1        0.0437
     22 C         154.5745  145.8435  155.1618 C.3     1  UNL1        0.0074
     23 C         154.5915  145.4248  153.7215 C.3     1  UNL1        0.0437
     24 O         140.1674  142.0060  159.7199 O.2     1  UNL1       -0.2733
     25 C         140.7283  142.2844  161.0829 C.2     1  UNL1        0.2426
     26 N         142.2081  142.4482  161.2659 N.am    1  UNL1       -0.3018
     27 H         142.5762  142.6309  162.1605 H       1  UNL1        0.1495
     28 C         139.8096  142.3991  162.2630 C.3     1  UNL1        0.1759
     29 N         140.1735  141.7454  163.5632 N.am    1  UNL1       -0.2931
     30 C         140.0803  142.5203  164.8441 C.2     1  UNL1        0.2462
     31 O         139.6232  143.9489  164.8250 O.2     1  UNL1       -0.2701
     32 H         140.4735  140.8078  163.5758 H       1  UNL1        0.1502
     33 C         140.4443  141.8667  166.1443 C.ar    1  UNL1        0.0533
     34 C         139.6063  140.7436  166.6795 C.ar    1  UNL1        0.0045
     35 C         139.9703  140.0901  167.9797 C.ar    1  UNL1        0.0001
     36 C         141.1722  140.5596  168.7445 C.ar    1  UNL1        0.0039
     37 C         142.0101  141.6827  168.2093 C.ar    1  UNL1        0.0716
     38 C         141.6461  142.3362  166.9092 C.ar    1  UNL1        0.0084
     39 C         143.2119  142.1522  168.9742 C.3     1  UNL1        0.4186
     40 F         144.4138  142.6217  169.7391 F       1  UNL1       -0.1659
     41 F         143.8207  142.6652  167.7029 F       1  UNL1       -0.1659
     42 F         142.6032  141.6392  170.2456 F       1  UNL1       -0.1659
@<TRIPOS>BOND
     1    24    25    2
     2    25    28    1
     3    28    29    1
     4    29    30   am
     5    30    31    2
     6    30    33    1
     7    33    34   ar
     8    34    35   ar
     9    35    36   ar
    10    36    37   ar
    11    37    39    1
    12    39    40    1
    13    39    41    1
    14    39    42    1
    15    37    38   ar
    16    25    26   am
    17    26     1    1
    18     1     2    1
    19     2     3    1
    20     5     3    1
    21     5     6    1
    22     6     7    1
    23     7     8    1
    24     8     9    1
    25     8    13    1
    26    13    14   ar
    27    14    15   ar
    28    15    16   ar
    29    16    19    1
    30    19    20    1
    31    20    21    1
    32    21    22    1
    33    22    23    1
    34    16    17   ar
    35    17    18   ar
    36     8    10    1
    37    10    11    1
    38     3     4    1
    39    38    33   ar
    40     4     1    1
    41    11     5    1
    42    18    13   ar
    43    23    20    1
    44    29    32    1
    45    26    27    1
    46     9    12    1
@<TRIPOS>MOLECULE
*****
 42 46 0 0 0
SMALL
GASTEIGER

@<TRIPOS>ATOM
      1 C         138.8598  142.2662  159.5200 C.3     1  UNL1        0.1035
      2 C         138.1061  142.6388  158.2779 C.3     1  UNL1        0.0933
      3 N         139.2771  143.4516  157.8110 N.3     1  UNL1       -0.2711
      4 C         140.0309  143.0790  159.0532 C.3     1  UNL1        0.0933
      5 C         139.5722  144.2898  156.6026 C.3     1  UNL1        0.0578
      6 C         139.5959  143.6608  155.2411 C.3     1  UNL1        0.0187
      7 C         139.8910  144.4991  154.0327 C.3     1  UNL1        0.0326
      8 C         140.1624  145.9663  154.1858 C.3     1  UNL1        0.1085
      9 O         140.2965  145.8305  152.6980 O.3     1  UNL1       -0.3826
     10 C         140.1386  146.5954  155.5473 C.3     1  UNL1        0.0326
     11 C         139.8436  145.7572  156.7557 C.3     1  UNL1        0.0187
     12 H         140.1430  144.9074  152.4425 H       1  UNL1        0.2107
     13 C         140.4803  147.3865  153.8222 C.ar    1  UNL1        0.0211
     14 C         139.8218  148.5148  154.5594 C.ar    1  UNL1        0.0043
     15 C         140.1398  149.9349  154.1958 C.ar    1  UNL1        0.0575
     16 C         141.1161  150.2267  153.0951 C.ar    1  UNL1        0.2247
     17 N         141.7745  149.0985  152.3579 N.ar    1  UNL1       -0.2104
     18 C         141.4567  147.6782  152.7215 C.ar    1  UNL1        0.1000
     19 O         141.4340  151.6468  152.7316 O.3     1  UNL1       -0.4640
     20 C         142.5520  152.3665  153.4258 C.3     1  UNL1        0.1676
     21 C         142.9149  153.8060  153.6406 C.3     1  UNL1        0.0437
     22 C         144.1331  153.3845  154.4076 C.3     1  UNL1        0.0074
     23 C         143.7702  151.9450  154.1929 C.3     1  UNL1        0.0437
     24 O         137.7132  143.5372  161.9837 O.2     1  UNL1       -0.2733
     25 C         137.9914  142.0635  161.9603 C.2     1  UNL1        0.2426
     26 N         138.5647  141.4279  160.7285 N.am    1  UNL1       -0.3018
     27 H         138.7473  140.4606  160.7131 H       1  UNL1        0.1495
     28 C         137.6963  141.2252  163.1687 C.3     1  UNL1        0.1759
     29 N         138.6981  141.1345  164.2815 N.am    1  UNL1       -0.2931
     30 C         139.3392  139.8184  164.6081 C.2     1  UNL1        0.2462
     31 O         138.9786  138.5929  163.8219 O.2     1  UNL1       -0.2701
     32 H         138.9348  141.9389  164.7974 H       1  UNL1        0.1502
     33 C         140.3410  139.7278  165.7209 C.ar    1  UNL1        0.0533
     34 C         141.7631  139.3563  165.4214 C.ar    1  UNL1        0.0045
     35 C         142.7648  139.2656  166.5342 C.ar    1  UNL1        0.0001
     36 C         142.3445  139.5465  167.9464 C.ar    1  UNL1        0.0039
     37 C         140.9224  139.9180  168.2459 C.ar    1  UNL1        0.0716
     38 C         139.9207  140.0086  167.1331 C.ar    1  UNL1        0.0084
     39 C         140.5021  140.1988  169.6581 C.3     1  UNL1        0.4186
     40 F         140.0817  140.4797  171.0704 F       1  UNL1       -0.1659
     41 F         141.9364  140.4098  170.0431 F       1  UNL1       -0.1659
     42 F         139.0677  139.9879  169.2732 F       1  UNL1       -0.1659
@<TRIPOS>BOND
     1    24    25    2
     2    25    28    1
     3    28    29    1
     4    29    30   am
     5    30    31    2
     6    30    33    1
     7    33    34   ar
     8    34    35   ar
     9    35    36   ar
    10    36    37   ar
    11    37    39    1
    12    39    40    1
    13    39    41    1
    14    39    42    1
    15    37    38   ar
    16    25    26   am
    17    26     1    1
    18     1     2    1
    19     2     3    1
    20     5     3    1
    21     5     6    1
    22     6     7    1
    23     7     8    1
    24     8     9    1
    25     8    13    1
    26    13    14   ar
    27    14    15   ar
    28    15    16   ar
    29    16    19    1
    30    19    20    1
    31    20    21    1
    32    21    22    1
    33    22    23    1
    34    16    17   ar
    35    17    18   ar
    36     8    10    1
    37    10    11    1
    38     3     4    1
    39    38    33   ar
    40     4     1    1
    41    11     5    1
    42    18    13   ar
    43    23    20    1
    44    29    32    1
    45    26    27    1
    46     9    12    1
@<TRIPOS>MOLECULE
*****
 42 46 0 0 0
SMALL
GASTEIGER

@<TRIPOS>ATOM
      1 C         141.9969  139.3906  160.5251 C.3     1  UNL1        0.1035
      2 C         141.9429  140.5956  159.6335 C.3     1  UNL1        0.0933
      3 N         142.8411  139.9073  158.6488 N.3     1  UNL1       -0.2711
      4 C         142.8950  138.7023  159.5405 C.3     1  UNL1        0.0933
      5 C         143.4380  140.2726  157.3222 C.3     1  UNL1        0.0578
      6 C         142.6658  140.0287  156.0595 C.3     1  UNL1        0.0187
      7 C         143.2628  140.3941  154.7328 C.3     1  UNL1        0.0326
      8 C         144.6320  141.0034  154.6687 C.3     1  UNL1        0.1085
      9 O         144.2946  140.9666  153.2077 O.3     1  UNL1       -0.3826
     10 C         145.4042  141.2473  155.9313 C.3     1  UNL1        0.0326
     11 C         144.8072  140.8820  157.2580 C.3     1  UNL1        0.0187
     12 H         143.4105  140.5854  153.0895 H       1  UNL1        0.2107
     13 C         145.8840  141.5999  154.0972 C.ar    1  UNL1        0.0211
     14 C         146.3778  142.9260  154.5948 C.ar    1  UNL1        0.0043
     15 C         147.6298  143.5226  154.0233 C.ar    1  UNL1        0.0575
     16 C         148.3880  142.7929  152.9542 C.ar    1  UNL1        0.2247
     17 N         147.8942  141.4669  152.4567 N.ar    1  UNL1       -0.2104
     18 C         146.6421  140.8703  153.0281 C.ar    1  UNL1        0.1000
     19 O         149.6400  143.3895  152.3828 O.3     1  UNL1       -0.4640
     20 C         150.9064  143.3877  153.1866 C.3     1  UNL1        0.1676
     21 C         152.0888  144.3031  153.3049 C.3     1  UNL1        0.0437
     22 C         152.6975  143.3852  154.3233 C.3     1  UNL1        0.0074
     23 C         151.5151  142.4698  154.2049 C.3     1  UNL1        0.0437
     24 O         139.5190  137.7034  160.6416 O.2     1  UNL1       -0.2733
     25 C         140.1610  138.1817  161.9101 C.2     1  UNL1        0.2426
     26 N         141.3999  139.0253  161.8519 N.am    1  UNL1       -0.3018
     27 H         141.8213  139.3392  162.6844 H       1  UNL1        0.1495
     28 C         139.5641  137.8165  163.2368 C.3     1  UNL1        0.1759
     29 N         139.9487  138.5815  164.4685 N.am    1  UNL1       -0.2931
     30 C         139.2065  139.8317  164.8372 C.2     1  UNL1        0.2462
     31 O         138.0796  140.3170  163.9743 O.2     1  UNL1       -0.2701
     32 H         140.6883  138.2630  165.0348 H       1  UNL1        0.1502
     33 C         139.5911  140.5967  166.0688 C.ar    1  UNL1        0.0533
     34 C         140.0993  142.0029  165.9501 C.ar    1  UNL1        0.0045
     35 C         140.4839  142.7678  167.1817 C.ar    1  UNL1        0.0001
     36 C         140.3603  142.1265  168.5321 C.ar    1  UNL1        0.0039
     37 C         139.8521  140.7203  168.6508 C.ar    1  UNL1        0.0716
     38 C         139.4675  139.9554  167.4192 C.ar    1  UNL1        0.0084
     39 C         139.7285  140.0789  170.0011 C.3     1  UNL1        0.4186
     40 F         139.6048  139.4376  171.3515 F       1  UNL1       -0.1659
     41 F         138.4133  140.7697  170.2088 F       1  UNL1       -0.1659
     42 F         141.0436  139.3881  169.7934 F       1  UNL1       -0.1659
@<TRIPOS>BOND
     1    24    25    2
     2    25    28    1
     3    28    29    1
     4    29    30   am
     5    30    31    2
     6    30    33    1
     7    33    34   ar
     8    34    35   ar
     9    35    36   ar
    10    36    37   ar
    11    37    39    1
    12    39    40    1
    13    39    41    1
    14    39    42    1
    15    37    38   ar
    16    25    26   am
    17    26     1    1
    18     1     2    1
    19     2     3    1
    20     5     3    1
    21     5     6    1
    22     6     7    1
    23     7     8    1
    24     8     9    1
    25     8    13    1
    26    13    14   ar
    27    14    15   ar
    28    15    16   ar
    29    16    19    1
    30    19    20    1
    31    20    21    1
    32    21    22    1
    33    22    23    1
    34    16    17   ar
    35    17    18   ar
    36     8    10    1
    37    10    11    1
    38     3     4    1
    39    38    33   ar
    40     4     1    1
    41    11     5    1
    42    18    13   ar
    43    23    20    1
    44    29    32    1
    45    26    27    1
    46     9    12    1
