@<TRIPOS>MOLECULE
*****
 35 39 0 0 0
SMALL
GASTEIGER

@<TRIPOS>ATOM
      1 C         138.0176  141.1284  161.1612 C.3     1  UNL1        0.2588
      2 O         139.8937  140.9939  159.3690 O.2     1  UNL1       -0.2708
      3 C         138.8808  141.7954  160.1316 C.2     1  UNL1        0.2689
      4 N         138.7310  143.2638  159.8646 N.am    1  UNL1       -0.2664
      5 H         138.0662  143.7898  160.3652 H       1  UNL1        0.1564
      6 C         139.5942  143.9308  158.8351 C.ar    1  UNL1        0.1342
      7 C         140.7040  144.8440  159.2644 C.ar    1  UNL1        0.0345
      8 C         141.5671  145.5110  158.2349 C.ar    1  UNL1        0.0045
      9 C         141.3205  145.2648  156.7759 C.ar    1  UNL1        0.0208
     10 C         140.2107  144.3516  156.3465 C.ar    1  UNL1        0.1003
     11 N         139.3475  143.6846  157.3762 N.ar    1  UNL1       -0.2290
     12 C         137.8211  139.6417  161.1261 C.3     1  UNL1        0.1261
     13 N         138.8228  138.7372  161.7807 N.3     1  UNL1       -0.2650
     14 C         140.3026  138.5260  161.6551 C.3     1  UNL1        0.1033
     15 C         140.2394  137.4579  162.7063 C.3     1  UNL1        0.1423
     16 O         141.2410  136.5533  163.3608 O.3     1  UNL1       -0.3816
     17 C         138.7597  137.6690  162.8319 C.3     1  UNL1        0.1033
     18 H         142.1221  136.7278  162.9945 H       1  UNL1        0.2105
     19 O         137.3509  141.9481  162.2259 O.3     1  UNL1       -0.4529
     20 C         138.1808  142.7373  163.1947 C.ar    1  UNL1        0.2312
     21 N         138.4369  144.1947  162.9493 N.ar    1  UNL1       -0.1892
     22 C         139.2668  144.9839  163.9180 C.ar    1  UNL1        0.2029
     23 N         139.8407  144.3155  165.1321 N.ar    1  UNL1       -0.2046
     24 C         139.5846  142.8581  165.3775 C.ar    1  UNL1        0.1715
     25 C         138.7547  142.0690  164.4088 C.ar    1  UNL1        0.1098
     26 C         138.6726  140.6578  164.9108 C.ar    1  UNL1        0.1283
     27 N         139.4519  140.5749  166.1898 N.ar    1  UNL1       -0.1619
     28 N         140.0155  141.9347  166.4782 N.ar    1  UNL1       -0.2111
     29 C         140.8615  142.3060  167.6599 C.ar    1  UNL1        0.0949
     30 C         140.2655  143.0871  168.7933 C.ar    1  UNL1        0.0201
     31 C         141.1115  143.4584  169.9750 C.ar    1  UNL1        0.0016
     32 C         142.5536  143.0485  170.0234 C.ar    1  UNL1        0.0010
     33 C         143.1496  142.2674  168.8900 C.ar    1  UNL1        0.0129
     34 C         142.3036  141.8961  167.7083 C.ar    1  UNL1        0.0753
     35 CL        142.8997  141.1150  166.5750 Cl      1  UNL1       -0.0807
@<TRIPOS>BOND
     1     2     3    2
     2     3     4   am
     3     4     6    1
     4     6     7   ar
     5     7     8   ar
     6     8     9   ar
     7     9    10   ar
     8    10    11   ar
     9     3     1    1
    10     1    12    1
    11    12    13    1
    12    13    14    1
    13    14    15    1
    14    15    16    1
    15    15    17    1
    16     1    19    1
    17    19    20    1
    18    20    21   ar
    19    21    22   ar
    20    22    23   ar
    21    23    24   ar
    22    24    25   ar
    23    25    26   ar
    24    26    27   ar
    25    27    28   ar
    26    28    29    1
    27    29    30   ar
    28    30    31   ar
    29    31    32   ar
    30    32    33   ar
    31    33    34   ar
    32    34    35    1
    33    11     6   ar
    34    17    13    1
    35    25    20   ar
    36    34    29   ar
    37    28    24   ar
    38     4     5    1
    39    16    18    1
@<TRIPOS>MOLECULE
*****
 35 39 0 0 0
SMALL
GASTEIGER

@<TRIPOS>ATOM
      1 C         140.9703  144.6865  160.0915 C.3     1  UNL1        0.2588
      2 O         142.2608  146.0296  158.2802 O.2     1  UNL1       -0.2708
      3 C         140.9715  145.4901  158.8248 C.2     1  UNL1        0.2689
      4 N         139.6834  145.7541  158.1029 N.am    1  UNL1       -0.2664
      5 H         138.8373  145.3999  158.4605 H       1  UNL1        0.1564
      6 C         139.6846  146.5576  156.8364 C.ar    1  UNL1        0.1342
      7 C         140.4279  146.0592  155.6326 C.ar    1  UNL1        0.0345
      8 C         140.4290  146.8628  154.3660 C.ar    1  UNL1        0.0045
      9 C         139.6868  148.1648  154.3032 C.ar    1  UNL1        0.0208
     10 C         138.9435  148.6632  155.5069 C.ar    1  UNL1        0.1003
     11 N         138.9424  147.8596  156.7736 N.ar    1  UNL1       -0.2290
     12 C         141.0514  143.1900  160.0303 C.3     1  UNL1        0.1261
     13 N         139.8709  142.3577  160.4352 N.3     1  UNL1       -0.2650
     14 C         138.4547  142.2232  159.9593 C.3     1  UNL1        0.1033
     15 C         138.2015  141.1808  161.0078 C.3     1  UNL1        0.1423
     16 O         137.0210  140.3486  161.4126 O.3     1  UNL1       -0.3816
     17 C         139.6175  141.3154  161.4836 C.3     1  UNL1        0.1033
     18 H         136.2652  140.5606  160.8427 H       1  UNL1        0.2105
     19 O         140.8881  145.3795  161.4193 O.3     1  UNL1       -0.4529
     20 C         140.0570  144.7925  162.5215 C.ar    1  UNL1        0.2312
     21 N         138.5611  144.8852  162.4636 N.ar    1  UNL1       -0.1892
     22 C         137.7301  144.2982  163.5657 C.ar    1  UNL1        0.2029
     23 N         138.3951  143.6185  164.7258 N.ar    1  UNL1       -0.2046
     24 C         139.8910  143.5258  164.7837 C.ar    1  UNL1        0.1715
     25 C         140.7220  144.1128  163.6815 C.ar    1  UNL1        0.1098
     26 C         142.1655  143.8701  164.0097 C.ar    1  UNL1        0.1283
     27 N         142.2265  143.1330  165.3147 N.ar    1  UNL1       -0.1619
     28 N         140.8208  142.9202  165.7931 N.ar    1  UNL1       -0.2111
     29 C         140.4160  142.2242  167.0586 C.ar    1  UNL1        0.0949
     30 C         140.5036  142.9441  168.3716 C.ar    1  UNL1        0.0201
     31 C         140.0988  142.2480  169.6371 C.ar    1  UNL1        0.0016
     32 C         139.6064  140.8319  169.5897 C.ar    1  UNL1        0.0010
     33 C         139.5188  140.1120  168.2767 C.ar    1  UNL1        0.0129
     34 C         139.9236  140.8081  167.0111 C.ar    1  UNL1        0.0753
     35 CL        139.8360  140.0881  165.6982 Cl      1  UNL1       -0.0807
@<TRIPOS>BOND
     1     2     3    2
     2     3     4   am
     3     4     6    1
     4     6     7   ar
     5     7     8   ar
     6     8     9   ar
     7     9    10   ar
     8    10    11   ar
     9     3     1    1
    10     1    12    1
    11    12    13    1
    12    13    14    1
    13    14    15    1
    14    15    16    1
    15    15    17    1
    16     1    19    1
    17    19    20    1
    18    20    21   ar
    19    21    22   ar
    20    22    23   ar
    21    23    24   ar
    22    24    25   ar
    23    25    26   ar
    24    26    27   ar
    25    27    28   ar
    26    28    29    1
    27    29    30   ar
    28    30    31   ar
    29    31    32   ar
    30    32    33   ar
    31    33    34   ar
    32    34    35    1
    33    11     6   ar
    34    17    13    1
    35    25    20   ar
    36    34    29   ar
    37    28    24   ar
    38     4     5    1
    39    16    18    1
@<TRIPOS>MOLECULE
*****
 35 39 0 0 0
SMALL
GASTEIGER

@<TRIPOS>ATOM
      1 C         142.3371  139.6104  167.1687 C.3     1  UNL1        0.2588
      2 O         139.8406  139.8091  166.4775 O.2     1  UNL1       -0.2708
      3 C         141.2269  140.3804  166.5171 C.2     1  UNL1        0.2689
      4 N         141.5031  141.7218  165.9051 N.am    1  UNL1       -0.2664
      5 H         142.4130  142.0967  165.9312 H       1  UNL1        0.1564
      6 C         140.3930  142.4918  165.2535 C.ar    1  UNL1        0.1342
      7 C         139.8299  143.7092  165.9250 C.ar    1  UNL1        0.0345
      8 C         138.7198  144.4792  165.2734 C.ar    1  UNL1        0.0045
      9 C         138.1726  144.0319  163.9503 C.ar    1  UNL1        0.0208
     10 C         138.7357  142.8145  163.2788 C.ar    1  UNL1        0.1003
     11 N         139.8459  142.0444  163.9305 N.ar    1  UNL1       -0.2290
     12 C         142.4966  139.6411  168.6599 C.3     1  UNL1        0.1261
     13 N         142.6821  140.9506  169.3675 N.3     1  UNL1       -0.2650
     14 C         143.3671  142.2447  169.0416 C.3     1  UNL1        0.1033
     15 C         142.9444  142.8025  170.3683 C.3     1  UNL1        0.1423
     16 O         143.1300  144.1120  171.0759 O.3     1  UNL1       -0.3816
     17 C         142.2595  141.5086  170.6942 C.3     1  UNL1        0.1033
     18 H         143.6475  144.7117  170.5160 H       1  UNL1        0.2105
     19 O         143.2878  138.8097  166.3291 O.3     1  UNL1       -0.4529
     20 C         143.4900  139.1595  164.8845 C.ar    1  UNL1        0.2312
     21 N         144.5605  140.1339  164.4915 N.ar    1  UNL1       -0.1892
     22 C         144.7627  140.4837  163.0470 C.ar    1  UNL1        0.2029
     23 N         143.8943  139.8591  161.9954 N.ar    1  UNL1       -0.2046
     24 C         142.8238  138.8847  162.3884 C.ar    1  UNL1        0.1715
     25 C         142.6216  138.5349  163.8329 C.ar    1  UNL1        0.1098
     26 C         141.4945  137.5487  163.9178 C.ar    1  UNL1        0.1283
     27 N         141.0000  137.2891  162.5257 N.ar    1  UNL1       -0.1619
     28 N         141.8216  138.1148  161.5804 N.ar    1  UNL1       -0.2111
     29 C         141.6679  138.1622  160.0891 C.ar    1  UNL1        0.0949
     30 C         142.7904  137.7068  159.2046 C.ar    1  UNL1        0.0201
     31 C         142.6368  137.7542  157.7132 C.ar    1  UNL1        0.0016
     32 C         141.3605  138.2571  157.1063 C.ar    1  UNL1        0.0010
     33 C         140.2380  138.7125  157.9909 C.ar    1  UNL1        0.0129
     34 C         140.3916  138.6651  159.4822 C.ar    1  UNL1        0.0753
     35 CL        139.2690  139.1205  160.3667 Cl      1  UNL1       -0.0807
@<TRIPOS>BOND
     1     2     3    2
     2     3     4   am
     3     4     6    1
     4     6     7   ar
     5     7     8   ar
     6     8     9   ar
     7     9    10   ar
     8    10    11   ar
     9     3     1    1
    10     1    12    1
    11    12    13    1
    12    13    14    1
    13    14    15    1
    14    15    16    1
    15    15    17    1
    16     1    19    1
    17    19    20    1
    18    20    21   ar
    19    21    22   ar
    20    22    23   ar
    21    23    24   ar
    22    24    25   ar
    23    25    26   ar
    24    26    27   ar
    25    27    28   ar
    26    28    29    1
    27    29    30   ar
    28    30    31   ar
    29    31    32   ar
    30    32    33   ar
    31    33    34   ar
    32    34    35    1
    33    11     6   ar
    34    17    13    1
    35    25    20   ar
    36    34    29   ar
    37    28    24   ar
    38     4     5    1
    39    16    18    1
@<TRIPOS>MOLECULE
*****
 35 39 0 0 0
SMALL
GASTEIGER

@<TRIPOS>ATOM
      1 C         138.1404  140.6930  161.3616 C.3     1  UNL1        0.2588
      2 O         137.9062  143.2678  161.1057 O.2     1  UNL1       -0.2708
      3 C         138.5289  141.9714  160.6798 C.2     1  UNL1        0.2689
      4 N         139.5402  141.9533  159.5721 N.am    1  UNL1       -0.2664
      5 H         139.9489  141.1024  159.2926 H       1  UNL1        0.1564
      6 C         139.9288  143.2316  158.8904 C.ar    1  UNL1        0.1342
      7 C         140.9133  144.1586  159.5395 C.ar    1  UNL1        0.0345
      8 C         141.3019  145.4369  158.8577 C.ar    1  UNL1        0.0045
      9 C         140.7059  145.7883  157.5267 C.ar    1  UNL1        0.0208
     10 C         139.7213  144.8613  156.8776 C.ar    1  UNL1        0.1003
     11 N         139.3328  143.5829  157.5595 N.ar    1  UNL1       -0.2290
     12 C         138.4681  139.3744  160.7261 C.3     1  UNL1        0.1261
     13 N         139.8295  138.7716  160.9085 N.3     1  UNL1       -0.2650
     14 C         140.4971  137.9650  161.9827 C.3     1  UNL1        0.1033
     15 C         141.7547  137.9191  161.1665 C.3     1  UNL1        0.1423
     16 O         143.1161  137.3164  161.3490 O.3     1  UNL1       -0.3816
     17 C         141.0872  138.7257  160.0925 C.3     1  UNL1        0.1033
     18 H         143.1551  136.8584  162.2032 H       1  UNL1        0.2105
     19 O         137.4241  140.7332  162.6789 O.3     1  UNL1       -0.4529
     20 C         138.1646  140.4190  163.9451 C.ar    1  UNL1        0.2312
     21 N         138.1924  139.0137  164.4687 N.ar    1  UNL1       -0.1892
     22 C         138.9328  138.6996  165.7348 C.ar    1  UNL1        0.2029
     23 N         139.6454  139.7908  166.4773 N.ar    1  UNL1       -0.2046
     24 C         139.6176  141.1961  165.9538 C.ar    1  UNL1        0.1715
     25 C         138.8772  141.5103  164.6877 C.ar    1  UNL1        0.1098
     26 C         139.0244  142.9783  164.4166 C.ar    1  UNL1        0.1283
     27 N         139.8558  143.5714  165.5152 N.ar    1  UNL1       -0.1619
     28 N         140.2224  142.4700  166.4652 N.ar    1  UNL1       -0.2111
     29 C         141.0487  142.6166  167.7085 C.ar    1  UNL1        0.0949
     30 C         140.4407  143.2017  168.9485 C.ar    1  UNL1        0.0201
     31 C         141.2670  143.3484  170.1918 C.ar    1  UNL1        0.0016
     32 C         142.7015  142.9099  170.1949 C.ar    1  UNL1        0.0010
     33 C         143.3095  142.3247  168.9549 C.ar    1  UNL1        0.0129
     34 C         142.4832  142.1781  167.7116 C.ar    1  UNL1        0.0753
     35 CL        143.0913  141.5930  166.4716 Cl      1  UNL1       -0.0807
@<TRIPOS>BOND
     1     2     3    2
     2     3     4   am
     3     4     6    1
     4     6     7   ar
     5     7     8   ar
     6     8     9   ar
     7     9    10   ar
     8    10    11   ar
     9     3     1    1
    10     1    12    1
    11    12    13    1
    12    13    14    1
    13    14    15    1
    14    15    16    1
    15    15    17    1
    16     1    19    1
    17    19    20    1
    18    20    21   ar
    19    21    22   ar
    20    22    23   ar
    21    23    24   ar
    22    24    25   ar
    23    25    26   ar
    24    26    27   ar
    25    27    28   ar
    26    28    29    1
    27    29    30   ar
    28    30    31   ar
    29    31    32   ar
    30    32    33   ar
    31    33    34   ar
    32    34    35    1
    33    11     6   ar
    34    17    13    1
    35    25    20   ar
    36    34    29   ar
    37    28    24   ar
    38     4     5    1
    39    16    18    1
@<TRIPOS>MOLECULE
*****
 35 39 0 0 0
SMALL
GASTEIGER

@<TRIPOS>ATOM
      1 C         139.3096  138.2554  161.4636 C.3     1  UNL1        0.2588
      2 O         139.2262  138.5382  158.8823 O.2     1  UNL1       -0.2708
      3 C         140.0175  138.4017  160.1492 C.2     1  UNL1        0.2689
      4 N         141.5167  138.4116  160.1019 N.am    1  UNL1       -0.2664
      5 H         142.0361  138.3220  160.9334 H       1  UNL1        0.1564
      6 C         142.2246  138.5580  158.7876 C.ar    1  UNL1        0.1342
      7 C         142.8186  139.8793  158.3987 C.ar    1  UNL1        0.0345
      8 C         143.5266  140.0256  157.0844 C.ar    1  UNL1        0.0045
      9 C         143.6405  138.8506  156.1590 C.ar    1  UNL1        0.0208
     10 C         143.0465  137.5293  156.5478 C.ar    1  UNL1        0.1003
     11 N         142.3385  137.3830  157.8622 N.ar    1  UNL1       -0.2290
     12 C         137.9779  138.9124  161.6755 C.3     1  UNL1        0.1261
     13 N         137.8924  140.4022  161.8278 N.3     1  UNL1       -0.2650
     14 C         138.2297  141.5783  160.9600 C.3     1  UNL1        0.1033
     15 C         137.7714  142.5090  162.0432 C.3     1  UNL1        0.1423
     16 O         137.6858  143.9988  162.1956 O.3     1  UNL1       -0.3816
     17 C         137.4340  141.3331  162.9110 C.3     1  UNL1        0.1033
     18 H         138.0104  144.4257  161.3873 H       1  UNL1        0.2105
     19 O         139.9334  137.4520  162.5661 O.3     1  UNL1       -0.4529
     20 C         140.7679  138.1327  163.6104 C.ar    1  UNL1        0.2312
     21 N         142.2549  138.2270  163.4380 N.ar    1  UNL1       -0.1892
     22 C         143.0892  138.9076  164.4823 C.ar    1  UNL1        0.2029
     23 N         142.4365  139.4939  165.6989 N.ar    1  UNL1       -0.2046
     24 C         140.9495  139.3996  165.8713 C.ar    1  UNL1        0.1715
     25 C         140.1151  138.7190  164.8270 C.ar    1  UNL1        0.1098
     26 C         138.6823  138.7788  165.2669 C.ar    1  UNL1        0.1283
     27 N         138.6311  139.4964  166.5831 N.ar    1  UNL1       -0.1619
     28 N         140.0323  139.8801  166.9566 N.ar    1  UNL1       -0.2111
     29 C         140.4441  140.6152  168.1976 C.ar    1  UNL1        0.0949
     30 C         140.6934  139.8596  169.4691 C.ar    1  UNL1        0.0201
     31 C         141.1051  140.5947  170.7101 C.ar    1  UNL1        0.0016
     32 C         141.2677  142.0855  170.6796 C.ar    1  UNL1        0.0010
     33 C         141.0184  142.8412  169.4081 C.ar    1  UNL1        0.0129
     34 C         140.6067  142.1061  168.1671 C.ar    1  UNL1        0.0753
     35 CL        140.3574  142.8618  166.8956 Cl      1  UNL1       -0.0807
@<TRIPOS>BOND
     1     2     3    2
     2     3     4   am
     3     4     6    1
     4     6     7   ar
     5     7     8   ar
     6     8     9   ar
     7     9    10   ar
     8    10    11   ar
     9     3     1    1
    10     1    12    1
    11    12    13    1
    12    13    14    1
    13    14    15    1
    14    15    16    1
    15    15    17    1
    16     1    19    1
    17    19    20    1
    18    20    21   ar
    19    21    22   ar
    20    22    23   ar
    21    23    24   ar
    22    24    25   ar
    23    25    26   ar
    24    26    27   ar
    25    27    28   ar
    26    28    29    1
    27    29    30   ar
    28    30    31   ar
    29    31    32   ar
    30    32    33   ar
    31    33    34   ar
    32    34    35    1
    33    11     6   ar
    34    17    13    1
    35    25    20   ar
    36    34    29   ar
    37    28    24   ar
    38     4     5    1
    39    16    18    1
@<TRIPOS>MOLECULE
*****
 35 39 0 0 0
SMALL
GASTEIGER

@<TRIPOS>ATOM
      1 C         137.6308  140.5085  161.4899 C.3     1  UNL1        0.2588
      2 O         138.5315  142.4085  159.9638 O.2     1  UNL1       -0.2708
      3 C         137.9508  141.0346  160.1220 C.2     1  UNL1        0.2689
      4 N         137.6901  140.1866  158.9125 N.am    1  UNL1       -0.2664
      5 H         137.3090  139.2848  159.0164 H       1  UNL1        0.1564
      6 C         138.0101  140.7125  157.5447 C.ar    1  UNL1        0.1342
      7 C         139.2287  140.2238  156.8193 C.ar    1  UNL1        0.0345
      8 C         139.5487  140.7498  155.4515 C.ar    1  UNL1        0.0045
      9 C         138.6500  141.7645  154.8090 C.ar    1  UNL1        0.0208
     10 C         137.4314  142.2532  155.5343 C.ar    1  UNL1        0.1003
     11 N         137.1114  141.7272  156.9022 N.ar    1  UNL1       -0.2290
     12 C         137.9099  139.0735  161.8258 C.3     1  UNL1        0.1261
     13 N         139.3210  138.5649  161.8293 N.3     1  UNL1       -0.2650
     14 C         140.2062  137.8995  162.8412 C.3     1  UNL1        0.1033
     15 C         141.3166  137.8455  161.8343 C.3     1  UNL1        0.1423
     16 O         142.7277  137.3368  161.8377 O.3     1  UNL1       -0.3816
     17 C         140.4315  138.5108  160.8224 C.3     1  UNL1        0.1033
     18 H         142.9348  136.9636  162.7088 H       1  UNL1        0.2105
     19 O         137.0317  141.4175  162.5218 O.3     1  UNL1       -0.4529
     20 C         137.9219  142.2586  163.3880 C.ar    1  UNL1        0.2312
     21 N         138.1762  143.6934  163.0323 N.ar    1  UNL1       -0.1892
     22 C         139.0664  144.5343  163.8985 C.ar    1  UNL1        0.2029
     23 N         139.7022  143.9405  165.1204 N.ar    1  UNL1       -0.2046
     24 C         139.4479  142.5057  165.4761 C.ar    1  UNL1        0.1715
     25 C         138.5577  141.6647  164.6099 C.ar    1  UNL1        0.1098
     26 C         138.4921  140.2908  165.2084 C.ar    1  UNL1        0.1283
     27 N         139.3417  140.2827  166.4446 N.ar    1  UNL1       -0.1619
     28 N         139.9324  141.6516  166.6100 N.ar    1  UNL1       -0.2111
     29 C         140.8471  142.0895  167.7152 C.ar    1  UNL1        0.0949
     30 C         140.3005  142.8606  168.8799 C.ar    1  UNL1        0.0201
     31 C         141.2152  143.2985  169.9852 C.ar    1  UNL1        0.0016
     32 C         142.6765  142.9653  169.9258 C.ar    1  UNL1        0.0010
     33 C         143.2230  142.1941  168.7611 C.ar    1  UNL1        0.0129
     34 C         142.3084  141.7562  167.6558 C.ar    1  UNL1        0.0753
     35 CL        142.8550  140.9851  166.4912 Cl      1  UNL1       -0.0807
@<TRIPOS>BOND
     1     2     3    2
     2     3     4   am
     3     4     6    1
     4     6     7   ar
     5     7     8   ar
     6     8     9   ar
     7     9    10   ar
     8    10    11   ar
     9     3     1    1
    10     1    12    1
    11    12    13    1
    12    13    14    1
    13    14    15    1
    14    15    16    1
    15    15    17    1
    16     1    19    1
    17    19    20    1
    18    20    21   ar
    19    21    22   ar
    20    22    23   ar
    21    23    24   ar
    22    24    25   ar
    23    25    26   ar
    24    26    27   ar
    25    27    28   ar
    26    28    29    1
    27    29    30   ar
    28    30    31   ar
    29    31    32   ar
    30    32    33   ar
    31    33    34   ar
    32    34    35    1
    33    11     6   ar
    34    17    13    1
    35    25    20   ar
    36    34    29   ar
    37    28    24   ar
    38     4     5    1
    39    16    18    1
@<TRIPOS>MOLECULE
*****
 35 39 0 0 0
SMALL
GASTEIGER

@<TRIPOS>ATOM
      1 C         142.1598  139.4543  166.1300 C.3     1  UNL1        0.2588
      2 O         142.3111  141.7187  164.8654 O.2     1  UNL1       -0.2708
      3 C         141.4913  140.6650  165.5490 C.2     1  UNL1        0.2689
      4 N         140.0031  140.8218  165.6517 N.am    1  UNL1       -0.2664
      5 H         139.4650  140.1301  166.1005 H       1  UNL1        0.1564
      6 C         139.3346  142.0324  165.0708 C.ar    1  UNL1        0.1342
      7 C         139.5409  143.3779  165.7009 C.ar    1  UNL1        0.0345
      8 C         138.8724  144.5885  165.1199 C.ar    1  UNL1        0.0045
      9 C         137.9977  144.4536  163.9088 C.ar    1  UNL1        0.0208
     10 C         137.7915  143.1081  163.2787 C.ar    1  UNL1        0.1003
     11 N         138.4600  141.8975  163.8597 N.ar    1  UNL1       -0.2290
     12 C         142.9526  139.5712  167.3980 C.3     1  UNL1        0.1261
     13 N         142.2550  139.8555  168.6951 N.3     1  UNL1       -0.2650
     14 C         142.7008  140.1559  170.0956 C.3     1  UNL1        0.1033
     15 C         141.2686  140.2575  170.5296 C.3     1  UNL1        0.1423
     16 O         140.5711  140.5418  171.8268 O.3     1  UNL1       -0.3816
     17 C         140.8229  139.9572  169.1293 C.3     1  UNL1        0.1033
     18 H         141.2303  140.6888  172.5230 H       1  UNL1        0.2105
     19 O         142.0354  138.1267  165.4430 O.3     1  UNL1       -0.4529
     20 C         141.3669  138.0352  164.1032 C.ar    1  UNL1        0.2312
     21 N         139.8922  137.7754  164.0170 N.ar    1  UNL1       -0.1892
     22 C         139.2238  137.6840  162.6773 C.ar    1  UNL1        0.2029
     23 N         140.0302  137.8524  161.4238 N.ar    1  UNL1       -0.2046
     24 C         141.5050  138.1122  161.5100 C.ar    1  UNL1        0.1715
     25 C         142.1734  138.2036  162.8497 C.ar    1  UNL1        0.1098
     26 C         143.6326  138.4669  162.6228 C.ar    1  UNL1        0.1283
     27 N         143.8660  138.5383  161.1428 N.ar    1  UNL1       -0.1619
     28 N         142.5511  138.3190  160.4551 N.ar    1  UNL1       -0.2111
     29 C         142.3224  138.3084  158.9726 C.ar    1  UNL1        0.0949
     30 C         142.7037  137.1044  158.1635 C.ar    1  UNL1        0.0201
     31 C         142.4750  137.0938  156.6811 C.ar    1  UNL1        0.0016
     32 C         141.8650  138.2873  156.0077 C.ar    1  UNL1        0.0010
     33 C         141.4837  139.4914  156.8169 C.ar    1  UNL1        0.0129
     34 C         141.7124  139.5020  158.2993 C.ar    1  UNL1        0.0753
     35 CL        141.3311  140.7061  159.1084 Cl      1  UNL1       -0.0807
@<TRIPOS>BOND
     1     2     3    2
     2     3     4   am
     3     4     6    1
     4     6     7   ar
     5     7     8   ar
     6     8     9   ar
     7     9    10   ar
     8    10    11   ar
     9     3     1    1
    10     1    12    1
    11    12    13    1
    12    13    14    1
    13    14    15    1
    14    15    16    1
    15    15    17    1
    16     1    19    1
    17    19    20    1
    18    20    21   ar
    19    21    22   ar
    20    22    23   ar
    21    23    24   ar
    22    24    25   ar
    23    25    26   ar
    24    26    27   ar
    25    27    28   ar
    26    28    29    1
    27    29    30   ar
    28    30    31   ar
    29    31    32   ar
    30    32    33   ar
    31    33    34   ar
    32    34    35    1
    33    11     6   ar
    34    17    13    1
    35    25    20   ar
    36    34    29   ar
    37    28    24   ar
    38     4     5    1
    39    16    18    1
@<TRIPOS>MOLECULE
*****
 35 39 0 0 0
SMALL
GASTEIGER

@<TRIPOS>ATOM
      1 C         141.4596  144.2006  160.7149 C.3     1  UNL1        0.2588
      2 O         141.7220  141.8459  159.6486 O.2     1  UNL1       -0.2708
      3 C         142.0637  143.3063  159.6731 C.2     1  UNL1        0.2689
      4 N         143.0094  143.8724  158.6557 N.am    1  UNL1       -0.2664
      5 H         143.2337  144.8309  158.6718 H       1  UNL1        0.1564
      6 C         143.6135  142.9782  157.6139 C.ar    1  UNL1        0.1342
      7 C         144.8717  142.2191  157.9152 C.ar    1  UNL1        0.0345
      8 C         145.4758  141.3249  156.8734 C.ar    1  UNL1        0.0045
      9 C         144.8217  141.1897  155.5302 C.ar    1  UNL1        0.0208
     10 C         143.5636  141.9488  155.2289 C.ar    1  UNL1        0.1003
     11 N         142.9595  142.8431  156.2708 N.ar    1  UNL1       -0.2290
     12 C         139.9889  144.4944  160.6898 C.3     1  UNL1        0.1261
     13 N         139.0309  143.5897  161.4067 N.3     1  UNL1       -0.2650
     14 C         138.0035  143.7729  162.4842 C.3     1  UNL1        0.1033
     15 C         137.6762  142.3104  162.4206 C.3     1  UNL1        0.1423
     16 O         136.7183  141.4058  163.1375 O.3     1  UNL1       -0.3816
     17 C         138.7036  142.1273  161.3432 C.3     1  UNL1        0.1033
     18 H         136.2099  141.9202  163.7839 H       1  UNL1        0.2105
     19 O         142.3262  144.8010  161.7819 O.3     1  UNL1       -0.4529
     20 C         143.0197  143.9133  162.7725 C.ar    1  UNL1        0.2312
     21 N         144.3972  143.3964  162.4807 N.ar    1  UNL1       -0.1892
     22 C         145.0907  142.5088  163.4712 C.ar    1  UNL1        0.2029
     23 N         144.4066  142.1382  164.7537 N.ar    1  UNL1       -0.2046
     24 C         143.0290  142.6551  165.0455 C.ar    1  UNL1        0.1715
     25 C         142.3356  143.5427  164.0549 C.ar    1  UNL1        0.1098
     26 C         140.9893  143.8973  164.6132 C.ar    1  UNL1        0.1283
     27 N         140.8506  143.2289  165.9488 N.ar    1  UNL1       -0.1619
     28 N         142.1113  142.4611  166.2160 N.ar    1  UNL1       -0.2111
     29 C         142.4030  141.6431  167.4390 C.ar    1  UNL1        0.0949
     30 C         142.8903  142.3118  168.6900 C.ar    1  UNL1        0.0201
     31 C         143.1820  141.4938  169.9130 C.ar    1  UNL1        0.0016
     32 C         142.9864  140.0068  169.8849 C.ar    1  UNL1        0.0010
     33 C         142.4991  139.3381  168.6338 C.ar    1  UNL1        0.0129
     34 C         142.2074  140.1561  167.4109 C.ar    1  UNL1        0.0753
     35 CL        141.7201  139.4873  166.1598 Cl      1  UNL1       -0.0807
@<TRIPOS>BOND
     1     2     3    2
     2     3     4   am
     3     4     6    1
     4     6     7   ar
     5     7     8   ar
     6     8     9   ar
     7     9    10   ar
     8    10    11   ar
     9     3     1    1
    10     1    12    1
    11    12    13    1
    12    13    14    1
    13    14    15    1
    14    15    16    1
    15    15    17    1
    16     1    19    1
    17    19    20    1
    18    20    21   ar
    19    21    22   ar
    20    22    23   ar
    21    23    24   ar
    22    24    25   ar
    23    25    26   ar
    24    26    27   ar
    25    27    28   ar
    26    28    29    1
    27    29    30   ar
    28    30    31   ar
    29    31    32   ar
    30    32    33   ar
    31    33    34   ar
    32    34    35    1
    33    11     6   ar
    34    17    13    1
    35    25    20   ar
    36    34    29   ar
    37    28    24   ar
    38     4     5    1
    39    16    18    1
@<TRIPOS>MOLECULE
*****
 35 39 0 0 0
SMALL
GASTEIGER

@<TRIPOS>ATOM
      1 C         142.0743  143.4718  160.8814 C.3     1  UNL1        0.2588
      2 O         142.5225  140.9171  161.0329 O.2     1  UNL1       -0.2708
      3 C         141.5853  142.0813  161.1602 C.2     1  UNL1        0.2689
      4 N         140.1592  141.8552  161.5664 N.am    1  UNL1       -0.2664
      5 H         139.5441  142.6194  161.6500 H       1  UNL1        0.1564
      6 C         139.6702  140.4649  161.8452 C.ar    1  UNL1        0.1342
      7 C         139.4167  140.0281  163.2576 C.ar    1  UNL1        0.0345
      8 C         138.9277  138.6378  163.5364 C.ar    1  UNL1        0.0045
      9 C         138.6921  137.6841  162.4027 C.ar    1  UNL1        0.0208
     10 C         138.9455  138.1209  160.9903 C.ar    1  UNL1        0.1003
     11 N         139.4346  139.5114  160.7115 N.ar    1  UNL1       -0.2290
     12 C         142.5741  143.8309  159.5135 C.3     1  UNL1        0.1261
     13 N         141.7973  144.7876  158.6585 N.3     1  UNL1       -0.2650
     14 C         140.3450  145.1259  158.4956 C.3     1  UNL1        0.1033
     15 C         140.6987  146.1407  157.4492 C.3     1  UNL1        0.1423
     16 O         139.9219  147.0975  156.5942 O.3     1  UNL1       -0.3816
     17 C         142.1509  145.8025  157.6121 C.3     1  UNL1        0.1033
     18 H         138.9759  147.0120  156.7908 H       1  UNL1        0.2105
     19 O         142.0636  144.5031  161.9706 O.3     1  UNL1       -0.4529
     20 C         141.1053  144.3728  163.1173 C.ar    1  UNL1        0.2312
     21 N         139.7611  145.0349  163.0503 N.ar    1  UNL1       -0.1892
     22 C         138.8029  144.9047  164.1970 C.ar    1  UNL1        0.2029
     23 N         139.1890  144.1123  165.4107 N.ar    1  UNL1       -0.2046
     24 C         140.5333  143.4501  165.4777 C.ar    1  UNL1        0.1715
     25 C         141.4914  143.5804  164.3310 C.ar    1  UNL1        0.1098
     26 C         142.7377  142.8220  164.6799 C.ar    1  UNL1        0.1283
     27 N         142.5498  142.2230  166.0422 N.ar    1  UNL1       -0.1619
     28 N         141.1873  142.6112  166.5353 N.ar    1  UNL1       -0.2111
     29 C         140.5848  142.2278  167.8543 C.ar    1  UNL1        0.0949
     30 C         140.5697  143.2118  168.9864 C.ar    1  UNL1        0.0201
     31 C         139.9672  142.8284  170.3054 C.ar    1  UNL1        0.0016
     32 C         139.3796  141.4610  170.4924 C.ar    1  UNL1        0.0010
     33 C         139.3946  140.4771  169.3604 C.ar    1  UNL1        0.0129
     34 C         139.9971  140.8605  168.0413 C.ar    1  UNL1        0.0753
     35 CL        140.0121  139.8765  166.9093 Cl      1  UNL1       -0.0807
@<TRIPOS>BOND
     1     2     3    2
     2     3     4   am
     3     4     6    1
     4     6     7   ar
     5     7     8   ar
     6     8     9   ar
     7     9    10   ar
     8    10    11   ar
     9     3     1    1
    10     1    12    1
    11    12    13    1
    12    13    14    1
    13    14    15    1
    14    15    16    1
    15    15    17    1
    16     1    19    1
    17    19    20    1
    18    20    21   ar
    19    21    22   ar
    20    22    23   ar
    21    23    24   ar
    22    24    25   ar
    23    25    26   ar
    24    26    27   ar
    25    27    28   ar
    26    28    29    1
    27    29    30   ar
    28    30    31   ar
    29    31    32   ar
    30    32    33   ar
    31    33    34   ar
    32    34    35    1
    33    11     6   ar
    34    17    13    1
    35    25    20   ar
    36    34    29   ar
    37    28    24   ar
    38     4     5    1
    39    16    18    1
