@<TRIPOS>MOLECULE
*****
 27 29 0 0 0
SMALL
GASTEIGER

@<TRIPOS>ATOM
      1 N         139.7720  138.7528  165.5784 N.am    1  UNL1       -0.2969
      2 C         138.8550  139.1249  166.7055 C.2     1  UNL1        0.2461
      3 O         137.4148  138.7073  166.6698 O.2     1  UNL1       -0.2701
      4 H         140.7173  139.0269  165.6018 H       1  UNL1        0.1501
      5 C         139.3783  139.9147  167.8685 C.ar    1  UNL1        0.0540
      6 C         138.6425  139.9019  169.1756 C.ar    1  UNL1        0.0061
      7 C         139.1658  140.6916  170.3385 C.ar    1  UNL1        0.0198
      8 C         140.4247  141.4943  170.1944 C.ar    1  UNL1        0.0892
      9 N         141.1760  142.3647  171.1578 N.ar    1  UNL1       -0.2245
     10 C         142.3760  142.9155  170.4461 C.ar    1  UNL1        0.1567
     11 N         143.4050  143.8350  171.0343 N.pl3   1  UNL1       -0.3375
     12 S         142.3664  142.3855  169.0428 S.2     1  UNL1       -0.0520
     13 C         141.1604  141.5072  168.8873 C.ar    1  UNL1        0.0498
     14 C         140.6372  140.7174  167.7244 C.ar    1  UNL1        0.0126
     15 H         143.3245  144.1294  171.9703 H       1  UNL1        0.1442
     16 H         144.1608  144.1440  170.4843 H       1  UNL1        0.1442
     17 C         139.2488  137.9630  164.4153 C.3     1  UNL1        0.1166
     18 C         138.4657  140.0019  160.4809 C.ar    1  UNL1        0.0756
     19 C         137.8826  140.5613  161.7447 C.ar    1  UNL1        0.0062
     20 C         138.1436  139.8816  163.0562 C.ar    1  UNL1       -0.0024
     21 C         138.9878  138.6426  163.1039 C.ar    1  UNL1       -0.0026
     22 C         139.5709  138.0833  161.8402 C.ar    1  UNL1       -0.0024
     23 C         139.3099  138.7629  160.5286 C.ar    1  UNL1        0.0062
     24 C         138.2047  140.6815  159.1695 C.2     1  UNL1        0.3413
     25 O         137.1521  140.1470  158.2442 O.2     1  UNL1       -0.2449
     26 C         140.4573  141.7693  158.4677 C.3     1  UNL1        0.2560
     27 O         138.9964  141.8957  158.7833 O.3     1  UNL1       -0.4413
@<TRIPOS>BOND
     1    26    27    1
     2    27    24    1
     3    24    25    2
     4    24    18    1
     5    18    19   ar
     6    19    20   ar
     7    20    21   ar
     8    21    17    1
     9    17     1    1
    10     1     2   am
    11     2     3    2
    12     2     5    1
    13     5     6   ar
    14     6     7   ar
    15     7     8   ar
    16     8     9   ar
    17     9    10   ar
    18    10    11    1
    19    10    12   ar
    20    12    13   ar
    21    13    14   ar
    22    21    22   ar
    23    22    23   ar
    24    23    18   ar
    25    14     5   ar
    26    13     8   ar
    27     1     4    1
    28    11    15    1
    29    11    16    1
@<TRIPOS>MOLECULE
*****
 27 29 0 0 0
SMALL
GASTEIGER

@<TRIPOS>ATOM
      1 N         140.0332  138.3361  165.5943 N.am    1  UNL1       -0.2969
      2 C         139.2211  139.4582  166.1698 C.2     1  UNL1        0.2461
      3 O         137.9663  139.9061  165.4808 O.2     1  UNL1       -0.2701
      4 H         140.8567  138.0421  166.0465 H       1  UNL1        0.1501
      5 C         139.6639  140.1326  167.4345 C.ar    1  UNL1        0.0540
      6 C         138.8829  139.9395  168.7005 C.ar    1  UNL1        0.0061
      7 C         139.3257  140.6138  169.9650 C.ar    1  UNL1        0.0198
      8 C         140.5495  141.4812  169.9636 C.ar    1  UNL1        0.0892
      9 N         141.2233  142.2680  171.0486 N.ar    1  UNL1       -0.2245
     10 C         142.4207  142.9474  170.4530 C.ar    1  UNL1        0.1567
     11 N         143.3830  143.8375  171.1824 N.pl3   1  UNL1       -0.3375
     12 S         142.4870  142.5804  169.0001 S.2     1  UNL1       -0.0520
     13 C         141.3305  141.6742  168.6977 C.ar    1  UNL1        0.0498
     14 C         140.8877  140.9999  167.4331 C.ar    1  UNL1        0.0126
     15 H         143.2548  144.0199  172.1413 H       1  UNL1        0.1442
     16 H         144.1427  144.2393  170.7021 H       1  UNL1        0.1442
     17 C         139.5904  137.6617  164.3296 C.3     1  UNL1        0.1166
     18 C         141.9070  138.2778  160.5213 C.ar    1  UNL1        0.0756
     19 C         140.4106  138.3816  160.5140 C.ar    1  UNL1        0.0062
     20 C         139.6384  138.1762  161.7835 C.ar    1  UNL1       -0.0024
     21 C         140.3626  137.8671  163.0602 C.ar    1  UNL1       -0.0026
     22 C         141.8589  137.7632  163.0675 C.ar    1  UNL1       -0.0024
     23 C         142.6312  137.9686  161.7980 C.ar    1  UNL1        0.0062
     24 C         142.6792  138.4831  159.2518 C.2     1  UNL1        0.3413
     25 O         143.9966  139.1996  159.2830 O.2     1  UNL1       -0.2449
     26 C         142.7211  136.7429  157.3231 C.3     1  UNL1        0.2560
     27 O         142.1340  137.9720  157.9513 O.3     1  UNL1       -0.4413
@<TRIPOS>BOND
     1    26    27    1
     2    27    24    1
     3    24    25    2
     4    24    18    1
     5    18    19   ar
     6    19    20   ar
     7    20    21   ar
     8    21    17    1
     9    17     1    1
    10     1     2   am
    11     2     3    2
    12     2     5    1
    13     5     6   ar
    14     6     7   ar
    15     7     8   ar
    16     8     9   ar
    17     9    10   ar
    18    10    11    1
    19    10    12   ar
    20    12    13   ar
    21    13    14   ar
    22    21    22   ar
    23    22    23   ar
    24    23    18   ar
    25    14     5   ar
    26    13     8   ar
    27     1     4    1
    28    11    15    1
    29    11    16    1
@<TRIPOS>MOLECULE
*****
 27 29 0 0 0
SMALL
GASTEIGER

@<TRIPOS>ATOM
      1 N         138.4679  139.3021  164.9902 N.am    1  UNL1       -0.2969
      2 C         139.3716  138.7204  163.9440 C.2     1  UNL1        0.2461
      3 O         140.5357  137.8657  164.3494 O.2     1  UNL1       -0.2701
      4 H         137.7039  139.8631  164.7241 H       1  UNL1        0.1501
      5 C         139.1113  138.9934  162.4921 C.ar    1  UNL1        0.0540
      6 C         137.8495  139.6883  162.0741 C.ar    1  UNL1        0.0061
      7 C         137.5892  139.9612  160.6223 C.ar    1  UNL1        0.0198
      8 C         138.5909  139.5393  159.5885 C.ar    1  UNL1        0.0892
      9 N         138.6080  139.6723  158.0945 N.ar    1  UNL1       -0.2245
     10 C         139.8805  139.0596  157.5892 C.ar    1  UNL1        0.1567
     11 N         140.3086  138.9736  156.1541 N.pl3   1  UNL1       -0.3375
     12 S         140.6498  138.5480  158.7709 S.2     1  UNL1       -0.0520
     13 C         139.8528  138.8445  160.0065 C.ar    1  UNL1        0.0498
     14 C         140.1130  138.5715  161.4583 C.ar    1  UNL1        0.0126
     15 H         139.7318  139.3404  155.4455 H       1  UNL1        0.1442
     16 H         141.1663  138.5504  155.9208 H       1  UNL1        0.1442
     17 C         138.7282  139.0291  166.4421 C.3     1  UNL1        0.1166
     18 C         140.3889  142.2751  169.0794 C.ar    1  UNL1        0.0756
     19 C         139.6811  141.1017  169.6895 C.ar    1  UNL1        0.0062
     20 C         139.1275  140.0198  168.8104 C.ar    1  UNL1       -0.0024
     21 C         139.2817  140.1111  167.3212 C.ar    1  UNL1       -0.0026
     22 C         139.9896  141.2844  166.7110 C.ar    1  UNL1       -0.0024
     23 C         140.5432  142.3664  167.5901 C.ar    1  UNL1        0.0062
     24 C         140.9425  143.3571  169.9585 C.2     1  UNL1        0.3413
     25 O         140.2026  144.6532  170.1089 O.2     1  UNL1       -0.2449
     26 C         143.4249  142.5905  169.9584 C.3     1  UNL1        0.2560
     27 O         142.2360  143.1430  170.6872 O.3     1  UNL1       -0.4413
@<TRIPOS>BOND
     1    26    27    1
     2    27    24    1
     3    24    25    2
     4    24    18    1
     5    18    19   ar
     6    19    20   ar
     7    20    21   ar
     8    21    17    1
     9    17     1    1
    10     1     2   am
    11     2     3    2
    12     2     5    1
    13     5     6   ar
    14     6     7   ar
    15     7     8   ar
    16     8     9   ar
    17     9    10   ar
    18    10    11    1
    19    10    12   ar
    20    12    13   ar
    21    13    14   ar
    22    21    22   ar
    23    22    23   ar
    24    23    18   ar
    25    14     5   ar
    26    13     8   ar
    27     1     4    1
    28    11    15    1
    29    11    16    1
@<TRIPOS>MOLECULE
*****
 27 29 0 0 0
SMALL
GASTEIGER

@<TRIPOS>ATOM
      1 N         139.8599  139.4222  164.3364 N.am    1  UNL1       -0.2969
      2 C         140.9767  138.4634  164.0475 C.2     1  UNL1        0.2461
      3 O         141.4417  137.5116  165.1095 O.2     1  UNL1       -0.2701
      4 H         139.5548  140.0469  163.6393 H       1  UNL1        0.1501
      5 C         141.6285  138.4564  162.6965 C.ar    1  UNL1        0.0540
      6 C         143.1187  138.3278  162.5834 C.ar    1  UNL1        0.0061
      7 C         143.7704  138.3208  161.2324 C.ar    1  UNL1        0.0198
      8 C         142.9320  138.4423  159.9946 C.ar    1  UNL1        0.0892
      9 N         143.2901  138.4655  158.5380 N.ar    1  UNL1       -0.2245
     10 C         142.0212  138.6083  157.7510 C.ar    1  UNL1        0.1567
     11 N         141.9134  138.6745  156.2563 N.pl3   1  UNL1       -0.3375
     12 S         140.8789  138.6735  158.7211 S.2     1  UNL1       -0.0520
     13 C         141.4419  138.5709  160.1076 C.ar    1  UNL1        0.0498
     14 C         140.7901  138.5779  161.4586 C.ar    1  UNL1        0.0126
     15 H         142.7251  138.6231  155.7015 H       1  UNL1        0.1442
     16 H         141.0310  138.7692  155.8301 H       1  UNL1        0.1442
     17 C         139.2081  139.4293  165.6874 C.3     1  UNL1        0.1166
     18 C         140.5039  142.4145  168.7953 C.ar    1  UNL1        0.0756
     19 C         140.5888  142.7634  167.3389 C.ar    1  UNL1        0.0062
     20 C         140.1569  141.7683  166.3029 C.ar    1  UNL1       -0.0024
     21 C         139.6400  140.4244  166.7233 C.ar    1  UNL1       -0.0026
     22 C         139.5551  140.0755  168.1797 C.ar    1  UNL1       -0.0024
     23 C         139.9870  141.0706  169.2157 C.ar    1  UNL1        0.0062
     24 C         140.9358  143.4096  169.8313 C.2     1  UNL1        0.3413
     25 O         140.0619  144.5858  170.1517 O.2     1  UNL1       -0.2449
     26 C         143.3738  142.5127  169.8717 C.3     1  UNL1        0.2560
     27 O         142.2416  143.2285  170.5468 O.3     1  UNL1       -0.4413
@<TRIPOS>BOND
     1    26    27    1
     2    27    24    1
     3    24    25    2
     4    24    18    1
     5    18    19   ar
     6    19    20   ar
     7    20    21   ar
     8    21    17    1
     9    17     1    1
    10     1     2   am
    11     2     3    2
    12     2     5    1
    13     5     6   ar
    14     6     7   ar
    15     7     8   ar
    16     8     9   ar
    17     9    10   ar
    18    10    11    1
    19    10    12   ar
    20    12    13   ar
    21    13    14   ar
    22    21    22   ar
    23    22    23   ar
    24    23    18   ar
    25    14     5   ar
    26    13     8   ar
    27     1     4    1
    28    11    15    1
    29    11    16    1
@<TRIPOS>MOLECULE
*****
 27 29 0 0 0
SMALL
GASTEIGER

@<TRIPOS>ATOM
      1 N         143.0187  139.0252  164.5564 N.am    1  UNL1       -0.2969
      2 C         142.1668  138.0257  163.8317 C.2     1  UNL1        0.2461
      3 O         141.5822  136.8605  164.5736 O.2     1  UNL1       -0.2701
      4 H         143.4023  139.7900  164.0694 H       1  UNL1        0.1501
      5 C         141.8994  138.1915  162.3650 C.ar    1  UNL1        0.0540
      6 C         142.9671  137.8581  161.3656 C.ar    1  UNL1        0.0061
      7 C         142.6997  138.0238  159.8990 C.ar    1  UNL1        0.0198
      8 C         141.3646  138.5230  159.4318 C.ar    1  UNL1        0.0892
      9 N         140.8146  138.7850  158.0610 N.ar    1  UNL1       -0.2245
     10 C         139.4070  139.2804  158.2133 C.ar    1  UNL1        0.1567
     11 N         138.4817  139.6643  157.0967 N.pl3   1  UNL1       -0.3375
     12 S         139.0870  139.3245  159.6781 S.2     1  UNL1       -0.0520
     13 C         140.2969  138.8564  160.4312 C.ar    1  UNL1        0.0498
     14 C         140.5643  138.6906  161.8978 C.ar    1  UNL1        0.0126
     15 H         138.7849  139.6007  156.1623 H       1  UNL1        0.1442
     16 H         137.5712  139.9798  157.2984 H       1  UNL1        0.1442
     17 C         143.2861  138.8595  166.0231 C.3     1  UNL1        0.1166
     18 C         140.2121  140.1775  169.0336 C.ar    1  UNL1        0.0756
     19 C         141.5403  139.6566  169.4968 C.ar    1  UNL1        0.0062
     20 C         142.5649  139.2173  168.4933 C.ar    1  UNL1       -0.0024
     21 C         142.2614  139.2988  167.0266 C.ar    1  UNL1       -0.0026
     22 C         140.9333  139.8197  166.5634 C.ar    1  UNL1       -0.0024
     23 C         139.9085  140.2591  167.5669 C.ar    1  UNL1        0.0062
     24 C         139.1874  140.6168  170.0371 C.2     1  UNL1        0.3413
     25 O         138.2260  139.6198  170.6129 O.2     1  UNL1       -0.2449
     26 C         140.3423  142.9219  170.3577 C.3     1  UNL1        0.2560
     27 O         139.1242  142.0532  170.4648 O.3     1  UNL1       -0.4413
@<TRIPOS>BOND
     1    26    27    1
     2    27    24    1
     3    24    25    2
     4    24    18    1
     5    18    19   ar
     6    19    20   ar
     7    20    21   ar
     8    21    17    1
     9    17     1    1
    10     1     2   am
    11     2     3    2
    12     2     5    1
    13     5     6   ar
    14     6     7   ar
    15     7     8   ar
    16     8     9   ar
    17     9    10   ar
    18    10    11    1
    19    10    12   ar
    20    12    13   ar
    21    13    14   ar
    22    21    22   ar
    23    22    23   ar
    24    23    18   ar
    25    14     5   ar
    26    13     8   ar
    27     1     4    1
    28    11    15    1
    29    11    16    1
@<TRIPOS>MOLECULE
*****
 27 29 0 0 0
SMALL
GASTEIGER

@<TRIPOS>ATOM
      1 N         142.7599  138.9274  164.6779 N.am    1  UNL1       -0.2969
      2 C         144.0059  139.1908  163.8855 C.2     1  UNL1        0.2461
      3 O         145.3457  139.1494  164.5587 O.2     1  UNL1       -0.2701
      4 H         141.8805  138.9546  164.2360 H       1  UNL1        0.1501
      5 C         143.9122  139.4956  162.4197 C.ar    1  UNL1        0.0540
      6 C         143.5719  138.4055  161.4472 C.ar    1  UNL1        0.0061
      7 C         143.4782  138.7103  159.9816 C.ar    1  UNL1        0.0198
      8 C         143.7248  140.1053  159.4883 C.ar    1  UNL1        0.0892
      9 N         143.7036  140.7017  158.1121 N.ar    1  UNL1       -0.2245
     10 C         144.0308  142.1605  158.2341 C.ar    1  UNL1        0.1567
     11 N         144.1191  143.1419  157.1031 N.pl3   1  UNL1       -0.3375
     12 S         144.2542  142.4656  159.6857 S.2     1  UNL1       -0.0520
     13 C         144.0651  141.1954  160.4608 C.ar    1  UNL1        0.0498
     14 C         144.1588  140.8906  161.9265 C.ar    1  UNL1        0.0126
     15 H         143.9546  142.8443  156.1792 H       1  UNL1        0.1442
     16 H         144.3415  144.0836  157.2848 H       1  UNL1        0.1442
     17 C         142.8536  138.6226  166.1437 C.3     1  UNL1        0.1166
     18 C         142.6081  141.9571  169.1554 C.ar    1  UNL1        0.0756
     19 C         142.7820  142.2729  167.6994 C.ar    1  UNL1        0.0062
     20 C         142.8639  141.1614  166.6955 C.ar    1  UNL1       -0.0024
     21 C         142.7717  139.7341  167.1476 C.ar    1  UNL1       -0.0026
     22 C         142.5977  139.4183  168.6035 C.ar    1  UNL1       -0.0024
     23 C         142.5159  140.5298  169.6075 C.ar    1  UNL1        0.0062
     24 C         142.5262  143.0686  170.1593 C.2     1  UNL1        0.3413
     25 O         143.7805  143.6293  170.7613 O.2     1  UNL1       -0.2449
     26 C         139.9698  142.7497  170.4955 C.3     1  UNL1        0.2560
     27 O         141.1901  143.6194  170.5613 O.3     1  UNL1       -0.4413
@<TRIPOS>BOND
     1    26    27    1
     2    27    24    1
     3    24    25    2
     4    24    18    1
     5    18    19   ar
     6    19    20   ar
     7    20    21   ar
     8    21    17    1
     9    17     1    1
    10     1     2   am
    11     2     3    2
    12     2     5    1
    13     5     6   ar
    14     6     7   ar
    15     7     8   ar
    16     8     9   ar
    17     9    10   ar
    18    10    11    1
    19    10    12   ar
    20    12    13   ar
    21    13    14   ar
    22    21    22   ar
    23    22    23   ar
    24    23    18   ar
    25    14     5   ar
    26    13     8   ar
    27     1     4    1
    28    11    15    1
    29    11    16    1
@<TRIPOS>MOLECULE
*****
 27 29 0 0 0
SMALL
GASTEIGER

@<TRIPOS>ATOM
      1 N         139.9800  140.0103  167.2831 N.am    1  UNL1       -0.2969
      2 C         138.8116  139.2396  166.7438 C.2     1  UNL1        0.2461
      3 O         137.7436  138.7473  167.6750 O.2     1  UNL1       -0.2701
      4 H         140.6809  140.3334  166.6719 H       1  UNL1        0.1501
      5 C         138.7111  138.9612  165.2732 C.ar    1  UNL1        0.0540
      6 C         139.0977  137.6149  164.7367 C.ar    1  UNL1        0.0061
      7 C         138.9972  137.3365  163.2662 C.ar    1  UNL1        0.0198
      8 C         138.5102  138.4045  162.3323 C.ar    1  UNL1        0.0892
      9 N         138.3071  138.4219  160.8461 N.ar    1  UNL1       -0.2245
     10 C         137.7951  139.7791  160.4643 C.ar    1  UNL1        0.1567
     11 N         137.4559  140.2350  159.0760 N.pl3   1  UNL1       -0.3375
     12 S         137.6817  140.6004  161.7143 S.2     1  UNL1       -0.0520
     13 C         138.1237  139.7508  162.8688 C.ar    1  UNL1        0.0498
     14 C         138.2242  140.0292  164.3393 C.ar    1  UNL1        0.0126
     15 H         137.5643  139.6194  158.3154 H       1  UNL1        0.1442
     16 H         137.1249  141.1499  158.9254 H       1  UNL1        0.1442
     17 C         140.0804  140.2887  168.7537 C.3     1  UNL1        0.1166
     18 C         143.3270  142.9844  170.3167 C.ar    1  UNL1        0.0756
     19 C         143.6705  141.6194  169.7980 C.ar    1  UNL1        0.0062
     20 C         142.5883  140.7209  169.2770 C.ar    1  UNL1       -0.0024
     21 C         141.1626  141.1873  169.2747 C.ar    1  UNL1       -0.0026
     22 C         140.8191  142.5521  169.7934 C.ar    1  UNL1       -0.0024
     23 C         141.9013  143.4507  170.3144 C.ar    1  UNL1        0.0062
     24 C         144.4092  143.8829  170.8377 C.2     1  UNL1        0.3413
     25 O         144.0604  145.0390  171.7275 O.2     1  UNL1       -0.2449
     26 C         146.9283  144.4853  171.0401 C.3     1  UNL1        0.2560
     27 O         145.8401  143.6254  170.4688 O.3     1  UNL1       -0.4413
@<TRIPOS>BOND
     1    26    27    1
     2    27    24    1
     3    24    25    2
     4    24    18    1
     5    18    19   ar
     6    19    20   ar
     7    20    21   ar
     8    21    17    1
     9    17     1    1
    10     1     2   am
    11     2     3    2
    12     2     5    1
    13     5     6   ar
    14     6     7   ar
    15     7     8   ar
    16     8     9   ar
    17     9    10   ar
    18    10    11    1
    19    10    12   ar
    20    12    13   ar
    21    13    14   ar
    22    21    22   ar
    23    22    23   ar
    24    23    18   ar
    25    14     5   ar
    26    13     8   ar
    27     1     4    1
    28    11    15    1
    29    11    16    1
@<TRIPOS>MOLECULE
*****
 27 29 0 0 0
SMALL
GASTEIGER

@<TRIPOS>ATOM
      1 N         142.7758  138.8342  164.6692 N.am    1  UNL1       -0.2969
      2 C         143.9803  139.1935  163.8506 C.2     1  UNL1        0.2461
      3 O         145.3296  139.2808  164.4999 O.2     1  UNL1       -0.2701
      4 H         141.8902  138.7769  164.2431 H       1  UNL1        0.1501
      5 C         143.8354  139.4654  162.3825 C.ar    1  UNL1        0.0540
      6 C         144.1989  140.8116  161.8297 C.ar    1  UNL1        0.0061
      7 C         144.0540  141.0835  160.3617 C.ar    1  UNL1        0.0198
      8 C         143.5456  140.0092  159.4466 C.ar    1  UNL1        0.0892
      9 N         143.2992  139.9847  157.9671 N.ar    1  UNL1       -0.2245
     10 C         142.7834  138.6234  157.6056 C.ar    1  UNL1        0.1567
     11 N         142.4061  138.1601  156.2297 N.pl3   1  UNL1       -0.3375
     12 S         142.7110  137.8065  158.8617 S.2     1  UNL1       -0.0520
     13 C         143.1820  138.6631  159.9994 C.ar    1  UNL1        0.0498
     14 C         143.3269  138.3912  161.4674 C.ar    1  UNL1        0.0126
     15 H         142.4890  138.7732  155.4639 H       1  UNL1        0.1442
     16 H         142.0757  137.2429  156.0924 H       1  UNL1        0.1442
     17 C         142.9207  138.5623  166.1373 C.3     1  UNL1        0.1166
     18 C         142.5866  141.9375  169.0946 C.ar    1  UNL1        0.0756
     19 C         142.7294  142.2340  167.6311 C.ar    1  UNL1        0.0062
     20 C         142.8408  141.1089  166.6454 C.ar    1  UNL1       -0.0024
     21 C         142.8094  139.6874  167.1231 C.ar    1  UNL1       -0.0026
     22 C         142.6666  139.3909  168.5865 C.ar    1  UNL1       -0.0024
     23 C         142.5552  140.5160  169.5723 C.ar    1  UNL1        0.0062
     24 C         142.4752  143.0626  170.0804 C.2     1  UNL1        0.3413
     25 O         143.7065  143.5995  170.7479 O.2     1  UNL1       -0.2449
     26 C         139.9090  142.7834  170.3746 C.3     1  UNL1        0.2560
     27 O         141.1326  143.6508  170.3987 O.3     1  UNL1       -0.4413
@<TRIPOS>BOND
     1    26    27    1
     2    27    24    1
     3    24    25    2
     4    24    18    1
     5    18    19   ar
     6    19    20   ar
     7    20    21   ar
     8    21    17    1
     9    17     1    1
    10     1     2   am
    11     2     3    2
    12     2     5    1
    13     5     6   ar
    14     6     7   ar
    15     7     8   ar
    16     8     9   ar
    17     9    10   ar
    18    10    11    1
    19    10    12   ar
    20    12    13   ar
    21    13    14   ar
    22    21    22   ar
    23    22    23   ar
    24    23    18   ar
    25    14     5   ar
    26    13     8   ar
    27     1     4    1
    28    11    15    1
    29    11    16    1
@<TRIPOS>MOLECULE
*****
 27 29 0 0 0
SMALL
GASTEIGER

@<TRIPOS>ATOM
      1 N         138.5239  141.0810  164.8862 N.am    1  UNL1       -0.2969
      2 C         138.8569  140.0255  165.8986 C.2     1  UNL1        0.2461
      3 O         138.3438  138.6272  165.7208 O.2     1  UNL1       -0.2701
      4 H         138.8607  141.9987  165.0029 H       1  UNL1        0.1501
      5 C         139.7030  140.3682  167.0889 C.ar    1  UNL1        0.0540
      6 C         139.2684  139.9520  168.4629 C.ar    1  UNL1        0.0061
      7 C         140.1145  140.2947  169.6530 C.ar    1  UNL1        0.0198
      8 C         141.3952  141.0536  169.4693 C.ar    1  UNL1        0.0892
      9 N         142.4287  141.5299  170.4466 N.ar    1  UNL1       -0.2245
     10 C         143.5021  142.2404  169.6766 C.ar    1  UNL1        0.1567
     11 N         144.7301  142.8764  170.2576 N.pl3   1  UNL1       -0.3375
     12 S         143.1320  142.2032  168.2234 S.2     1  UNL1       -0.0520
     13 C         141.8299  141.4698  168.0953 C.ar    1  UNL1        0.0498
     14 C         140.9838  141.1271  166.9051 C.ar    1  UNL1        0.0126
     15 H         144.8861  142.8486  171.2293 H       1  UNL1        0.1442
     16 H         145.3801  143.3217  169.6673 H       1  UNL1        0.1442
     17 C         137.6778  140.7383  163.6959 C.3     1  UNL1        0.1166
     18 C         139.5843  139.0186  160.0003 C.ar    1  UNL1        0.0756
     19 C         139.6389  140.4960  160.2542 C.ar    1  UNL1        0.0062
     20 C         139.0034  141.0692  161.4861 C.ar    1  UNL1       -0.0024
     21 C         138.3133  140.1651  162.4640 C.ar    1  UNL1       -0.0026
     22 C         138.2588  138.6877  162.2101 C.ar    1  UNL1       -0.0024
     23 C         138.8943  138.1145  160.9782 C.ar    1  UNL1        0.0062
     24 C         140.2198  138.4454  158.7684 C.2     1  UNL1        0.3413
     25 O         139.3874  138.1807  157.5490 O.2     1  UNL1       -0.2449
     26 C         142.3769  137.8216  157.4615 C.3     1  UNL1        0.2560
     27 O         141.6877  138.1368  158.7559 O.3     1  UNL1       -0.4413
@<TRIPOS>BOND
     1    26    27    1
     2    27    24    1
     3    24    25    2
     4    24    18    1
     5    18    19   ar
     6    19    20   ar
     7    20    21   ar
     8    21    17    1
     9    17     1    1
    10     1     2   am
    11     2     3    2
    12     2     5    1
    13     5     6   ar
    14     6     7   ar
    15     7     8   ar
    16     8     9   ar
    17     9    10   ar
    18    10    11    1
    19    10    12   ar
    20    12    13   ar
    21    13    14   ar
    22    21    22   ar
    23    22    23   ar
    24    23    18   ar
    25    14     5   ar
    26    13     8   ar
    27     1     4    1
    28    11    15    1
    29    11    16    1
