@<TRIPOS>MOLECULE
*****
 25 27 0 0 0
SMALL
GASTEIGER

@<TRIPOS>ATOM
      1 C         140.2982  142.0669  166.2583 C.3     1  UNL1        0.1418
      2 O         140.1875  143.1979  167.2373 O.3     1  UNL1       -0.3772
      3 H         140.5191  142.9103  168.1023 H       1  UNL1        0.2112
      4 C         140.8814  141.1954  167.3309 C.ar    1  UNL1        0.0261
      5 C         140.0350  140.7694  168.4937 C.ar    1  UNL1        0.0015
      6 C         140.6182  139.8980  169.5664 C.ar    1  UNL1        0.0204
      7 C         142.0476  139.4526  169.4762 C.ar    1  UNL1        0.0989
      8 N         142.8940  139.8786  168.3134 N.ar    1  UNL1       -0.2426
      9 C         142.3108  140.7500  167.2408 C.ar    1  UNL1        0.0972
     10 C         139.7151  142.9383  165.1856 C.ar    1  UNL1        0.0261
     11 C         138.3268  142.6786  164.6806 C.ar    1  UNL1        0.0015
     12 C         137.7436  143.5500  163.6080 C.ar    1  UNL1        0.0204
     13 C         138.5488  144.6811  163.0403 C.ar    1  UNL1        0.0989
     14 N         139.9371  144.9408  163.5454 N.ar    1  UNL1       -0.2426
     15 C         140.5203  144.0694  164.6180 C.ar    1  UNL1        0.0972
     16 C         140.4090  140.9358  165.2792 C.3     1  UNL1        0.0903
     17 N         141.3253  141.0539  164.0974 N.3     1  UNL1       -0.2671
     18 C         142.7788  141.3618  164.3032 C.3     1  UNL1        0.1047
     19 C         143.6950  141.4799  163.1215 C.3     1  UNL1        0.1595
     20 O         143.1577  141.2900  161.7339 O.3     1  UNL1       -0.3508
     21 C         141.7042  140.9821  161.5282 C.3     1  UNL1        0.1595
     22 C         140.7880  140.8640  162.7099 C.3     1  UNL1        0.1047
     23 C         138.1757  139.4166  165.8538 C.3     1  UNL1        0.0015
     24 C         139.6035  139.6868  165.4819 C.3     1  UNL1        0.0176
     25 C         140.2461  138.3430  165.3050 C.3     1  UNL1        0.0015
@<TRIPOS>BOND
     1    23    24    1
     2    24    25    1
     3    24    16    1
     4    16    17    1
     5    17    18    1
     6    18    19    1
     7    19    20    1
     8    20    21    1
     9    21    22    1
    10    16     1    1
    11     1     2    1
    12     1     4    1
    13     4     5   ar
    14     5     6   ar
    15     6     7   ar
    16     7     8   ar
    17     8     9   ar
    18     1    10    1
    19    10    11   ar
    20    11    12   ar
    21    12    13   ar
    22    13    14   ar
    23    14    15   ar
    24    22    17    1
    25     9     4   ar
    26    15    10   ar
    27     2     3    1
@<TRIPOS>MOLECULE
*****
 25 27 0 0 0
SMALL
GASTEIGER

@<TRIPOS>ATOM
      1 C         140.3017  142.0565  166.2565 C.3     1  UNL1        0.1418
      2 O         140.1977  143.1910  167.2323 O.3     1  UNL1       -0.3772
      3 H         139.8188  143.9656  166.7882 H       1  UNL1        0.2112
      4 C         139.7170  142.9260  165.1832 C.ar    1  UNL1        0.0261
      5 C         138.3280  142.6652  164.6806 C.ar    1  UNL1        0.0015
      6 C         137.7432  143.5347  163.6073 C.ar    1  UNL1        0.0204
      7 C         138.5474  144.6650  163.0366 C.ar    1  UNL1        0.0989
      8 N         139.9363  144.9258  163.5393 N.ar    1  UNL1       -0.2426
      9 C         140.5211  144.0563  164.6126 C.ar    1  UNL1        0.0972
     10 C         140.8865  141.1870  167.3298 C.ar    1  UNL1        0.0261
     11 C         140.0449  140.7713  168.4998 C.ar    1  UNL1        0.0015
     12 C         140.6297  139.9018  169.5731 C.ar    1  UNL1        0.0204
     13 C         142.0561  139.4480  169.4764 C.ar    1  UNL1        0.0989
     14 N         142.8977  139.8636  168.3065 N.ar    1  UNL1       -0.2426
     15 C         142.3129  140.7331  167.2331 C.ar    1  UNL1        0.0972
     16 C         140.4058  140.9220  165.2808 C.3     1  UNL1        0.0903
     17 N         141.3204  141.0324  164.0969 N.3     1  UNL1       -0.2671
     18 C         140.7795  140.8415  162.7110 C.3     1  UNL1        0.1047
     19 C         141.6941  140.9519  161.5272 C.3     1  UNL1        0.1595
     20 O         143.1495  141.2533  161.7294 O.3     1  UNL1       -0.3508
     21 C         143.6904  141.4442  163.1154 C.3     1  UNL1        0.1595
     22 C         142.7758  141.3337  164.2992 C.3     1  UNL1        0.1047
     23 C         138.1701  139.4141  165.8759 C.3     1  UNL1        0.0015
     24 C         139.5953  139.6771  165.4888 C.3     1  UNL1        0.0176
     25 C         140.2279  138.3301  165.3008 C.3     1  UNL1        0.0015
@<TRIPOS>BOND
     1    23    24    1
     2    24    25    1
     3    24    16    1
     4    16    17    1
     5    17    18    1
     6    18    19    1
     7    19    20    1
     8    20    21    1
     9    21    22    1
    10    16     1    1
    11     1     2    1
    12     1     4    1
    13     4     5   ar
    14     5     6   ar
    15     6     7   ar
    16     7     8   ar
    17     8     9   ar
    18     1    10    1
    19    10    11   ar
    20    11    12   ar
    21    12    13   ar
    22    13    14   ar
    23    14    15   ar
    24    22    17    1
    25     9     4   ar
    26    15    10   ar
    27     2     3    1
@<TRIPOS>MOLECULE
*****
 25 27 0 0 0
SMALL
GASTEIGER

@<TRIPOS>ATOM
      1 C         140.1627  141.8799  166.0336 C.3     1  UNL1        0.1418
      2 O         139.8938  143.2957  166.4501 O.3     1  UNL1       -0.3772
      3 H         139.4428  143.7643  165.7304 H       1  UNL1        0.2112
      4 C         139.5180  142.1480  164.7060 C.ar    1  UNL1        0.0261
      5 C         138.0257  142.2625  164.6064 C.ar    1  UNL1        0.0015
      6 C         137.3810  142.5306  163.2788 C.ar    1  UNL1        0.0204
      7 C         138.2286  142.6843  162.0509 C.ar    1  UNL1        0.0989
      8 N         139.7208  142.5698  162.1505 N.ar    1  UNL1       -0.2426
      9 C         140.3656  142.3017  163.4780 C.ar    1  UNL1        0.0972
     10 C         140.8074  141.6118  167.3612 C.ar    1  UNL1        0.0261
     11 C         140.1061  140.7597  168.3771 C.ar    1  UNL1        0.0015
     12 C         140.7509  140.4916  169.7046 C.ar    1  UNL1        0.0204
     13 C         142.0968  141.0756  170.0163 C.ar    1  UNL1        0.0989
     14 N         142.7981  141.9277  169.0004 N.ar    1  UNL1       -0.2426
     15 C         142.1534  142.1958  167.6729 C.ar    1  UNL1        0.0972
     16 C         140.4316  140.4642  165.6171 C.3     1  UNL1        0.0903
     17 N         141.8431  139.9944  165.4242 N.3     1  UNL1       -0.2671
     18 C         142.3559  138.8201  166.2039 C.3     1  UNL1        0.1047
     19 C         143.7672  138.3504  166.0109 C.3     1  UNL1        0.1595
     20 O         144.6658  139.0550  165.0382 O.3     1  UNL1       -0.3508
     21 C         144.1531  140.2293  164.2585 C.3     1  UNL1        0.1595
     22 C         142.7417  140.6990  164.4515 C.3     1  UNL1        0.1047
     23 C         138.1031  139.1047  166.2134 C.3     1  UNL1        0.0015
     24 C         139.2891  139.5183  165.3936 C.3     1  UNL1        0.0176
     25 C         139.1903  138.7523  164.1077 C.3     1  UNL1        0.0015
@<TRIPOS>BOND
     1    23    24    1
     2    24    25    1
     3    24    16    1
     4    16    17    1
     5    17    18    1
     6    18    19    1
     7    19    20    1
     8    20    21    1
     9    21    22    1
    10    16     1    1
    11     1     2    1
    12     1     4    1
    13     4     5   ar
    14     5     6   ar
    15     6     7   ar
    16     7     8   ar
    17     8     9   ar
    18     1    10    1
    19    10    11   ar
    20    11    12   ar
    21    12    13   ar
    22    13    14   ar
    23    14    15   ar
    24    22    17    1
    25     9     4   ar
    26    15    10   ar
    27     2     3    1
@<TRIPOS>MOLECULE
*****
 25 27 0 0 0
SMALL
GASTEIGER

@<TRIPOS>ATOM
      1 C         140.1703  141.8835  166.0320 C.3     1  UNL1        0.1418
      2 O         139.9041  143.3015  166.4423 O.3     1  UNL1       -0.3772
      3 H         140.2403  143.4468  167.3405 H       1  UNL1        0.2112
      4 C         140.8159  141.6204  167.3601 C.ar    1  UNL1        0.0261
      5 C         140.1160  140.7707  168.3790 C.ar    1  UNL1        0.0015
      6 C         140.7615  140.5076  169.7072 C.ar    1  UNL1        0.0204
      7 C         142.1069  141.0941  170.0165 C.ar    1  UNL1        0.0989
      8 N         142.8068  141.9438  168.9976 N.ar    1  UNL1       -0.2426
      9 C         142.1613  142.2069  167.6694 C.ar    1  UNL1        0.0972
     10 C         139.5248  142.1467  164.7038 C.ar    1  UNL1        0.0261
     11 C         138.0327  142.2640  164.6052 C.ar    1  UNL1        0.0015
     12 C         137.3871  142.5271  163.2771 C.ar    1  UNL1        0.0204
     13 C         138.2337  142.6730  162.0475 C.ar    1  UNL1        0.0989
     14 N         139.7258  142.5557  162.1460 N.ar    1  UNL1       -0.2426
     15 C         140.3714  142.2925  163.4742 C.ar    1  UNL1        0.0972
     16 C         140.4366  140.4655  165.6216 C.3     1  UNL1        0.0903
     17 N         141.8470  139.9934  165.4265 N.3     1  UNL1       -0.2671
     18 C         142.7409  140.6879  164.4424 C.3     1  UNL1        0.1047
     19 C         144.1512  140.2158  164.2473 C.3     1  UNL1        0.1595
     20 O         144.6676  139.0493  165.0363 O.3     1  UNL1       -0.3508
     21 C         143.7736  138.3548  166.0204 C.3     1  UNL1        0.1595
     22 C         142.3633  138.8269  166.2155 C.3     1  UNL1        0.1047
     23 C         138.1045  139.1170  166.2289 C.3     1  UNL1        0.0015
     24 C         139.2925  139.5196  165.4064 C.3     1  UNL1        0.0176
     25 C         139.1939  138.7403  164.1286 C.3     1  UNL1        0.0015
@<TRIPOS>BOND
     1    23    24    1
     2    24    25    1
     3    24    16    1
     4    16    17    1
     5    17    18    1
     6    18    19    1
     7    19    20    1
     8    20    21    1
     9    21    22    1
    10    16     1    1
    11     1     2    1
    12     1     4    1
    13     4     5   ar
    14     5     6   ar
    15     6     7   ar
    16     7     8   ar
    17     8     9   ar
    18     1    10    1
    19    10    11   ar
    20    11    12   ar
    21    12    13   ar
    22    13    14   ar
    23    14    15   ar
    24    22    17    1
    25     9     4   ar
    26    15    10   ar
    27     2     3    1
@<TRIPOS>MOLECULE
*****
 25 27 0 0 0
SMALL
GASTEIGER

@<TRIPOS>ATOM
      1 C         141.6972  140.0361  165.4923 C.3     1  UNL1        0.1418
      2 O         142.3921  139.4679  166.6941 O.3     1  UNL1       -0.3772
      3 H         141.7510  138.9884  167.2417 H       1  UNL1        0.2112
      4 C         140.3999  139.4504  165.9656 C.ar    1  UNL1        0.0261
      5 C         139.7273  138.3738  165.1665 C.ar    1  UNL1        0.0015
      6 C         138.4300  137.7882  165.6398 C.ar    1  UNL1        0.0204
      7 C         137.8053  138.2790  166.9121 C.ar    1  UNL1        0.0989
      8 N         138.4780  139.3556  167.7111 N.ar    1  UNL1       -0.2426
      9 C         139.7753  139.9413  167.2379 C.ar    1  UNL1        0.0972
     10 C         142.9946  140.6218  165.0191 C.ar    1  UNL1        0.0261
     11 C         144.0563  139.7293  164.4479 C.ar    1  UNL1        0.0015
     12 C         145.3536  140.3150  163.9747 C.ar    1  UNL1        0.0204
     13 C         145.5892  141.7931  164.0726 C.ar    1  UNL1        0.0989
     14 N         144.5275  142.6855  164.6437 N.ar    1  UNL1       -0.2426
     15 C         143.2301  142.0999  165.1170 C.ar    1  UNL1        0.0972
     16 C         141.0023  140.6042  164.2905 C.3     1  UNL1        0.0903
     17 N         139.9776  141.6867  164.4587 N.3     1  UNL1       -0.2671
     18 C         140.3110  142.9195  165.2454 C.3     1  UNL1        0.1047
     19 C         139.2862  144.0018  165.4136 C.3     1  UNL1        0.1595
     20 O         137.9280  143.8514  164.7950 O.3     1  UNL1       -0.3508
     21 C         137.5946  142.6186  164.0082 C.3     1  UNL1        0.1595
     22 C         138.6194  141.5362  163.8401 C.3     1  UNL1        0.1047
     23 C         141.3858  138.7228  162.3058 C.3     1  UNL1        0.0015
     24 C         141.3322  140.0900  162.9206 C.3     1  UNL1        0.0176
     25 C         141.7083  141.0487  161.8301 C.3     1  UNL1        0.0015
@<TRIPOS>BOND
     1    23    24    1
     2    24    25    1
     3    24    16    1
     4    16    17    1
     5    17    18    1
     6    18    19    1
     7    19    20    1
     8    20    21    1
     9    21    22    1
    10    16     1    1
    11     1     2    1
    12     1     4    1
    13     4     5   ar
    14     5     6   ar
    15     6     7   ar
    16     7     8   ar
    17     8     9   ar
    18     1    10    1
    19    10    11   ar
    20    11    12   ar
    21    12    13   ar
    22    13    14   ar
    23    14    15   ar
    24    22    17    1
    25     9     4   ar
    26    15    10   ar
    27     2     3    1
@<TRIPOS>MOLECULE
*****
 25 27 0 0 0
SMALL
GASTEIGER

@<TRIPOS>ATOM
      1 C         140.6788  140.4435  166.4437 C.3     1  UNL1        0.1418
      2 O         139.4045  140.2995  167.2220 O.3     1  UNL1       -0.3772
      3 H         139.5184  140.6879  168.1035 H       1  UNL1        0.2112
      4 C         141.3161  141.1314  167.6145 C.ar    1  UNL1        0.0261
      5 C         142.4550  140.4778  168.3394 C.ar    1  UNL1        0.0015
      6 C         143.0923  141.1657  169.5102 C.ar    1  UNL1        0.0204
      7 C         142.5907  142.5072  169.9560 C.ar    1  UNL1        0.0989
      8 N         141.4517  143.1607  169.2311 N.ar    1  UNL1       -0.2426
      9 C         140.8144  142.4728  168.0603 C.ar    1  UNL1        0.0972
     10 C         140.0415  139.7556  165.2730 C.ar    1  UNL1        0.0261
     11 C         139.7758  138.2802  165.3236 C.ar    1  UNL1        0.0015
     12 C         139.1385  137.5923  164.1528 C.ar    1  UNL1        0.0204
     13 C         138.7669  138.3798  162.9315 C.ar    1  UNL1        0.0989
     14 N         139.0325  139.8552  162.8809 N.ar    1  UNL1       -0.2426
     15 C         139.6698  140.5431  164.0517 C.ar    1  UNL1        0.0972
     16 C         141.9530  140.5875  165.6655 C.3     1  UNL1        0.0903
     17 N         142.4229  141.9473  165.2409 N.3     1  UNL1       -0.2671
     18 C         143.8399  142.3657  165.4994 C.3     1  UNL1        0.1047
     19 C         144.3097  143.7255  165.0748 C.3     1  UNL1        0.1595
     20 O         143.3625  144.6668  164.3916 O.3     1  UNL1       -0.3508
     21 C         141.9454  144.2483  164.1331 C.3     1  UNL1        0.1595
     22 C         141.4756  142.8886  164.5577 C.3     1  UNL1        0.1047
     23 C         143.3437  138.2429  166.1068 C.3     1  UNL1        0.0015
     24 C         142.7573  139.3718  165.3119 C.3     1  UNL1        0.0176
     25 C         143.1262  139.1062  163.8824 C.3     1  UNL1        0.0015
@<TRIPOS>BOND
     1    23    24    1
     2    24    25    1
     3    24    16    1
     4    16    17    1
     5    17    18    1
     6    18    19    1
     7    19    20    1
     8    20    21    1
     9    21    22    1
    10    16     1    1
    11     1     2    1
    12     1     4    1
    13     4     5   ar
    14     5     6   ar
    15     6     7   ar
    16     7     8   ar
    17     8     9   ar
    18     1    10    1
    19    10    11   ar
    20    11    12   ar
    21    12    13   ar
    22    13    14   ar
    23    14    15   ar
    24    22    17    1
    25     9     4   ar
    26    15    10   ar
    27     2     3    1
@<TRIPOS>MOLECULE
*****
 25 27 0 0 0
SMALL
GASTEIGER

@<TRIPOS>ATOM
      1 C         142.7346  142.2224  166.7380 C.3     1  UNL1        0.1418
      2 O         143.8976  142.8822  167.4178 O.3     1  UNL1       -0.3772
      3 H         144.5558  143.1410  166.7540 H       1  UNL1        0.2112
      4 C         143.4031  142.4137  165.4089 C.ar    1  UNL1        0.0261
      5 C         144.0431  141.2471  164.7165 C.ar    1  UNL1        0.0015
      6 C         144.7115  141.4383  163.3873 C.ar    1  UNL1        0.0204
      7 C         144.7399  142.7961  162.7506 C.ar    1  UNL1        0.0989
      8 N         144.0999  143.9627  163.4429 N.ar    1  UNL1       -0.2426
      9 C         143.4315  143.7715  164.7721 C.ar    1  UNL1        0.0972
     10 C         142.0662  142.0312  168.0672 C.ar    1  UNL1        0.0261
     11 C         140.8673  142.8567  168.4294 C.ar    1  UNL1        0.0015
     12 C         140.1989  142.6654  169.7586 C.ar    1  UNL1        0.0204
     13 C         140.7294  141.6488  170.7255 C.ar    1  UNL1        0.0989
     14 N         141.9282  140.8233  170.3632 N.ar    1  UNL1       -0.2426
     15 C         142.5967  141.0146  169.0341 C.ar    1  UNL1        0.0972
     16 C         141.5716  141.5627  166.0582 C.3     1  UNL1        0.0903
     17 N         140.6867  142.3583  165.1450 N.3     1  UNL1       -0.2671
     18 C         139.9899  143.5843  165.6564 C.3     1  UNL1        0.1047
     19 C         139.1051  144.3798  164.7431 C.3     1  UNL1        0.1595
     20 O         138.9170  143.9495  163.3186 O.3     1  UNL1       -0.3508
     21 C         139.6138  142.7236  162.8072 C.3     1  UNL1        0.1595
     22 C         140.4986  141.9280  163.7204 C.3     1  UNL1        0.1047
     23 C         142.1266  138.8621  166.2167 C.3     1  UNL1        0.0015
     24 C         141.2935  140.1073  166.2916 C.3     1  UNL1        0.0176
     25 C         139.9189  139.6614  166.6937 C.3     1  UNL1        0.0015
@<TRIPOS>BOND
     1    23    24    1
     2    24    25    1
     3    24    16    1
     4    16    17    1
     5    17    18    1
     6    18    19    1
     7    19    20    1
     8    20    21    1
     9    21    22    1
    10    16     1    1
    11     1     2    1
    12     1     4    1
    13     4     5   ar
    14     5     6   ar
    15     6     7   ar
    16     7     8   ar
    17     8     9   ar
    18     1    10    1
    19    10    11   ar
    20    11    12   ar
    21    12    13   ar
    22    13    14   ar
    23    14    15   ar
    24    22    17    1
    25     9     4   ar
    26    15    10   ar
    27     2     3    1
@<TRIPOS>MOLECULE
*****
 25 27 0 0 0
SMALL
GASTEIGER

@<TRIPOS>ATOM
      1 C         141.6505  140.1491  165.6347 C.3     1  UNL1        0.1418
      2 O         142.4126  139.3098  166.6168 O.3     1  UNL1       -0.3772
      3 H         141.7902  138.7927  167.1518 H       1  UNL1        0.2112
      4 C         140.3601  139.5978  166.1649 C.ar    1  UNL1        0.0261
      5 C         139.5544  138.6439  165.3338 C.ar    1  UNL1        0.0015
      6 C         138.2640  138.0926  165.8640 C.ar    1  UNL1        0.0204
      7 C         137.7795  138.4953  167.2253 C.ar    1  UNL1        0.0989
      8 N         138.5852  139.4492  168.0563 N.ar    1  UNL1       -0.2426
      9 C         139.8756  140.0005  167.5261 C.ar    1  UNL1        0.0972
     10 C         142.9408  140.7004  165.1045 C.ar    1  UNL1        0.0261
     11 C         143.2954  142.1386  165.3408 C.ar    1  UNL1        0.0015
     12 C         144.5857  142.6898  164.8106 C.ar    1  UNL1        0.0204
     13 C         145.5215  141.8029  164.0441 C.ar    1  UNL1        0.0989
     14 N         145.1670  140.3648  163.8077 N.ar    1  UNL1       -0.2426
     15 C         143.8766  139.8135  164.3379 C.ar    1  UNL1        0.0972
     16 C         140.8883  140.9884  164.6525 C.3     1  UNL1        0.0903
     17 N         141.0359  140.7403  163.1805 N.3     1  UNL1       -0.2671
     18 C         140.7966  139.3683  162.6235 C.3     1  UNL1        0.1047
     19 C         140.9442  139.1202  161.1516 C.3     1  UNL1        0.1595
     20 O         141.3310  140.2442  160.2366 O.3     1  UNL1       -0.3508
     21 C         141.5703  141.6162  160.7936 C.3     1  UNL1        0.1595
     22 C         141.4227  141.8643  162.2656 C.3     1  UNL1        0.1047
     23 C         140.1471  143.2285  166.0874 C.3     1  UNL1        0.0015
     24 C         139.9786  142.0759  165.1423 C.3     1  UNL1        0.0176
     25 C         138.5601  142.1414  164.6591 C.3     1  UNL1        0.0015
@<TRIPOS>BOND
     1    23    24    1
     2    24    25    1
     3    24    16    1
     4    16    17    1
     5    17    18    1
     6    18    19    1
     7    19    20    1
     8    20    21    1
     9    21    22    1
    10    16     1    1
    11     1     2    1
    12     1     4    1
    13     4     5   ar
    14     5     6   ar
    15     6     7   ar
    16     7     8   ar
    17     8     9   ar
    18     1    10    1
    19    10    11   ar
    20    11    12   ar
    21    12    13   ar
    22    13    14   ar
    23    14    15   ar
    24    22    17    1
    25     9     4   ar
    26    15    10   ar
    27     2     3    1
@<TRIPOS>MOLECULE
*****
 25 27 0 0 0
SMALL
GASTEIGER

@<TRIPOS>ATOM
      1 C         140.1448  140.7446  166.6299 C.3     1  UNL1        0.1418
      2 O         139.2148  139.8690  167.4163 O.3     1  UNL1       -0.3772
      3 H         139.3686  140.0034  168.3646 H       1  UNL1        0.2112
      4 C         140.7260  141.2745  167.9072 C.ar    1  UNL1        0.0261
      5 C         140.4511  142.6882  168.3265 C.ar    1  UNL1        0.0015
      6 C         141.0323  143.2182  169.6038 C.ar    1  UNL1        0.0204
      7 C         141.8883  142.3344  170.4617 C.ar    1  UNL1        0.0989
      8 N         142.1631  140.9207  170.0424 N.ar    1  UNL1       -0.2426
      9 C         141.5819  140.3908  168.7652 C.ar    1  UNL1        0.0972
     10 C         139.5636  140.2147  165.3526 C.ar    1  UNL1        0.0261
     11 C         140.3140  139.1889  164.5560 C.ar    1  UNL1        0.0015
     12 C         139.7329  138.6589  163.2788 C.ar    1  UNL1        0.0204
     13 C         138.4013  139.1548  162.7981 C.ar    1  UNL1        0.0989
     14 N         137.6510  140.1806  163.5947 N.ar    1  UNL1       -0.2426
     15 C         138.2321  140.7105  164.8720 C.ar    1  UNL1        0.0972
     16 C         141.0748  141.6202  165.8435 C.3     1  UNL1        0.0903
     17 N         140.5262  142.7447  165.0161 N.3     1  UNL1       -0.2671
     18 C         139.5851  143.7381  165.6305 C.3     1  UNL1        0.1047
     19 C         139.0365  144.8625  164.8031 C.3     1  UNL1        0.1595
     20 O         139.4289  144.9935  163.3613 O.3     1  UNL1       -0.3508
     21 C         140.3700  144.0001  162.7469 C.3     1  UNL1        0.1595
     22 C         140.9186  142.8757  163.5743 C.3     1  UNL1        0.1047
     23 C         143.4152  140.1697  165.6324 C.3     1  UNL1        0.0015
     24 C         142.5534  141.3713  165.8845 C.3     1  UNL1        0.0176
     25 C         143.4919  142.4853  166.2427 C.3     1  UNL1        0.0015
@<TRIPOS>BOND
     1    23    24    1
     2    24    25    1
     3    24    16    1
     4    16    17    1
     5    17    18    1
     6    18    19    1
     7    19    20    1
     8    20    21    1
     9    21    22    1
    10    16     1    1
    11     1     2    1
    12     1     4    1
    13     4     5   ar
    14     5     6   ar
    15     6     7   ar
    16     7     8   ar
    17     8     9   ar
    18     1    10    1
    19    10    11   ar
    20    11    12   ar
    21    12    13   ar
    22    13    14   ar
    23    14    15   ar
    24    22    17    1
    25     9     4   ar
    26    15    10   ar
    27     2     3    1
