@<TRIPOS>MOLECULE
*****
 26 29 0 0 0
SMALL
GASTEIGER

@<TRIPOS>ATOM
      1 C         139.2718  141.8691  164.6218 C.ar    1  UNL1        0.0349
      2 C         138.1087  142.7742  164.3426 C.ar    1  UNL1        0.0061
      3 C         137.7807  143.1600  162.9307 C.ar    1  UNL1        0.0370
      4 C         138.6158  142.6407  161.7980 C.ar    1  UNL1        0.1386
      5 C         139.7788  141.7356  162.0772 C.ar    1  UNL1        0.0370
      6 C         140.1068  141.3498  163.4892 C.ar    1  UNL1        0.0061
      7 C         138.1979  139.3124  165.7663 C.3     1  UNL1        0.0414
      8 C         139.0629  140.2049  166.6060 C.2     1  UNL1        0.0421
      9 C         139.5999  141.4833  166.0338 C.2     1  UNL1        0.1471
     10 O         140.4648  142.3759  166.8735 O.3     1  UNL1       -0.4528
     11 C         140.7929  141.9901  168.2855 C.ar    1  UNL1        0.1512
     12 C         141.6579  142.8826  169.1252 C.ar    1  UNL1        0.0380
     13 C         141.9859  142.4968  170.5370 C.ar    1  UNL1        0.0032
     14 C         141.4490  141.2184  171.1093 C.ar    1  UNL1        0.0007
     15 C         140.5840  140.3258  170.2696 C.ar    1  UNL1        0.0095
     16 C         140.2560  140.7117  168.8577 C.ar    1  UNL1        0.0637
     17 S         139.3909  139.8191  168.0179 S.3     1  UNL1       -0.0852
     18 O         138.2877  143.0265  160.3860 O.3     1  UNL1       -0.4754
     19 C         139.3911  143.3120  159.4109 C.3     1  UNL1        0.2068
     20 C         140.0726  144.6482  159.4197 C.3     1  UNL1        0.0646
     21 C         141.4467  144.7855  160.0055 C.3     1  UNL1        0.0759
     22 N         141.6387  144.7184  161.4916 N.3     1  UNL1       -0.2726
     23 C         142.7277  143.9755  162.2073 C.3     1  UNL1        0.0721
     24 C         142.5374  144.1804  163.6810 C.3     1  UNL1        0.0188
     25 C         141.3308  145.0499  163.8761 C.3     1  UNL1        0.0188
     26 C         140.7753  145.3824  162.5229 C.3     1  UNL1        0.0721
@<TRIPOS>BOND
     1     7     8    1
     2     8     9    2
     3     9     1    1
     4     1     2   ar
     5     2     3   ar
     6     3     4   ar
     7     4    18    1
     8    18    19    1
     9    19    20    1
    10    20    21    1
    11    21    22    1
    12    22    23    1
    13    23    24    1
    14    24    25    1
    15    25    26    1
    16     4     5   ar
    17     5     6   ar
    18     9    10    1
    19    10    11    1
    20    11    12   ar
    21    12    13   ar
    22    13    14   ar
    23    14    15   ar
    24    15    16   ar
    25    16    17    1
    26    17     8    1
    27     6     1   ar
    28    16    11   ar
    29    26    22    1
@<TRIPOS>MOLECULE
*****
 26 29 0 0 0
SMALL
GASTEIGER

@<TRIPOS>ATOM
      1 C         139.2075  141.9549  164.5495 C.ar    1  UNL1        0.0349
      2 C         137.9281  142.6788  164.2513 C.ar    1  UNL1        0.0061
      3 C         137.6242  143.1181  162.8496 C.ar    1  UNL1        0.0370
      4 C         138.5996  142.8333  161.7462 C.ar    1  UNL1        0.1386
      5 C         139.8790  142.1094  162.0445 C.ar    1  UNL1        0.0370
      6 C         140.1830  141.6701  163.4461 C.ar    1  UNL1        0.0061
      7 C         138.3187  139.2519  165.5004 C.3     1  UNL1        0.0414
      8 C         139.0671  140.1641  166.4266 C.2     1  UNL1        0.0421
      9 C         139.5115  141.5156  165.9512 C.2     1  UNL1        0.1471
     10 O         140.2599  142.4277  166.8774 O.3     1  UNL1       -0.4528
     11 C         140.5639  141.9884  168.2791 C.ar    1  UNL1        0.1512
     12 C         141.3123  142.9006  169.2053 C.ar    1  UNL1        0.0380
     13 C         141.6163  142.4613  170.6069 C.ar    1  UNL1        0.0032
     14 C         141.1719  141.1098  171.0823 C.ar    1  UNL1        0.0007
     15 C         140.4235  140.1977  170.1561 C.ar    1  UNL1        0.0095
     16 C         140.1195  140.6370  168.7545 C.ar    1  UNL1        0.0637
     17 S         139.3711  139.7248  167.8282 S.3     1  UNL1       -0.0852
     18 O         138.2956  143.2726  160.3445 O.3     1  UNL1       -0.4754
     19 C         139.0383  142.6665  159.1909 C.3     1  UNL1        0.2068
     20 C         138.2817  142.0250  158.0658 C.3     1  UNL1        0.0646
     21 C         137.8275  140.6002  158.1836 C.3     1  UNL1        0.0759
     22 N         138.1414  139.8129  159.4212 N.3     1  UNL1       -0.2726
     23 C         137.2841  139.7209  160.6487 C.3     1  UNL1        0.0721
     24 C         137.9805  138.8305  161.6347 C.3     1  UNL1        0.0188
     25 C         139.2681  138.3722  161.0166 C.3     1  UNL1        0.0188
     26 C         139.3675  138.9794  159.6486 C.3     1  UNL1        0.0721
@<TRIPOS>BOND
     1     7     8    1
     2     8     9    2
     3     9     1    1
     4     1     2   ar
     5     2     3   ar
     6     3     4   ar
     7     4    18    1
     8    18    19    1
     9    19    20    1
    10    20    21    1
    11    21    22    1
    12    22    23    1
    13    23    24    1
    14    24    25    1
    15    25    26    1
    16     4     5   ar
    17     5     6   ar
    18     9    10    1
    19    10    11    1
    20    11    12   ar
    21    12    13   ar
    22    13    14   ar
    23    14    15   ar
    24    15    16   ar
    25    16    17    1
    26    17     8    1
    27     6     1   ar
    28    16    11   ar
    29    26    22    1
@<TRIPOS>MOLECULE
*****
 26 29 0 0 0
SMALL
GASTEIGER

@<TRIPOS>ATOM
      1 C         140.8080  139.5612  164.8717 C.ar    1  UNL1        0.0349
      2 C         140.5370  140.5020  163.7354 C.ar    1  UNL1        0.0061
      3 C         140.5389  139.9937  162.3242 C.ar    1  UNL1        0.0370
      4 C         140.8118  138.5446  162.0493 C.ar    1  UNL1        0.1386
      5 C         141.0828  137.6038  163.1856 C.ar    1  UNL1        0.0370
      6 C         141.0809  138.1121  164.5969 C.ar    1  UNL1        0.0061
      7 C         138.4506  139.0370  166.6516 C.3     1  UNL1        0.0414
      8 C         139.6274  139.8074  167.1730 C.2     1  UNL1        0.0421
      9 C         140.8061  140.0694  166.2830 C.2     1  UNL1        0.1471
     10 O         141.9829  140.8398  166.8043 O.3     1  UNL1       -0.4528
     11 C         141.9810  141.3480  168.2157 C.ar    1  UNL1        0.1512
     12 C         143.1577  142.1184  168.7370 C.ar    1  UNL1        0.0380
     13 C         143.1558  142.6266  170.1482 C.ar    1  UNL1        0.0032
     14 C         141.9771  142.3645  171.0382 C.ar    1  UNL1        0.0007
     15 C         140.8004  141.5942  170.5169 C.ar    1  UNL1        0.0095
     16 C         140.8023  141.0859  169.1056 C.ar    1  UNL1        0.0637
     17 S         139.6255  140.3156  168.5842 S.3     1  UNL1       -0.0852
     18 O         140.8136  138.0363  160.6380 O.3     1  UNL1       -0.4754
     19 C         141.9522  138.3726  159.7212 C.3     1  UNL1        0.2068
     20 C         143.3612  138.3479  160.2351 C.3     1  UNL1        0.0646
     21 C         144.0530  139.6310  160.5893 C.3     1  UNL1        0.0759
     22 N         144.1743  140.0458  162.0257 N.3     1  UNL1       -0.2726
     23 C         144.4172  139.1318  163.1899 C.3     1  UNL1        0.0721
     24 C         144.4671  139.9686  164.4338 C.3     1  UNL1        0.0188
     25 C         144.2549  141.3999  164.0382 C.3     1  UNL1        0.0188
     26 C         144.0740  141.4476  162.5499 C.3     1  UNL1        0.0721
@<TRIPOS>BOND
     1     7     8    1
     2     8     9    2
     3     9     1    1
     4     1     2   ar
     5     2     3   ar
     6     3     4   ar
     7     4    18    1
     8    18    19    1
     9    19    20    1
    10    20    21    1
    11    21    22    1
    12    22    23    1
    13    23    24    1
    14    24    25    1
    15    25    26    1
    16     4     5   ar
    17     5     6   ar
    18     9    10    1
    19    10    11    1
    20    11    12   ar
    21    12    13   ar
    22    13    14   ar
    23    14    15   ar
    24    15    16   ar
    25    16    17    1
    26    17     8    1
    27     6     1   ar
    28    16    11   ar
    29    26    22    1
@<TRIPOS>MOLECULE
*****
 26 29 0 0 0
SMALL
GASTEIGER

@<TRIPOS>ATOM
      1 C         142.0897  142.1627  164.2694 C.ar    1  UNL1        0.0349
      2 C         141.2405  141.6666  163.1369 C.ar    1  UNL1        0.0061
      3 C         141.3241  142.3258  161.7922 C.ar    1  UNL1        0.0370
      4 C         142.2571  143.4811  161.5800 C.ar    1  UNL1        0.1386
      5 C         143.1063  143.9771  162.7125 C.ar    1  UNL1        0.0370
      6 C         143.0227  143.3179  164.0572 C.ar    1  UNL1        0.0061
      7 C         143.6550  139.6620  164.8141 C.3     1  UNL1        0.0414
      8 C         142.7887  140.2531  165.8866 C.2     1  UNL1        0.0421
      9 C         142.0061  141.5034  165.6143 C.2     1  UNL1        0.1471
     10 O         141.1398  142.0945  166.6867 O.3     1  UNL1       -0.4528
     11 C         141.0561  141.4353  168.0315 C.ar    1  UNL1        0.1512
     12 C         140.1899  142.0264  169.1040 C.ar    1  UNL1        0.0380
     13 C         140.1062  141.3672  170.4487 C.ar    1  UNL1        0.0032
     14 C         140.8889  140.1169  170.7210 C.ar    1  UNL1        0.0007
     15 C         141.7552  139.5258  169.6486 C.ar    1  UNL1        0.0095
     16 C         141.8388  140.1850  168.3039 C.ar    1  UNL1        0.0637
     17 S         142.7051  139.5939  167.2314 S.3     1  UNL1       -0.0852
     18 O         142.3407  144.1403  160.2351 O.3     1  UNL1       -0.4754
     19 C         141.4425  145.2966  159.9095 C.3     1  UNL1        0.2068
     20 C         140.0373  145.3253  160.4334 C.3     1  UNL1        0.0646
     21 C         139.7476  145.9413  161.7701 C.3     1  UNL1        0.0759
     22 N         139.2092  145.0947  162.8851 N.3     1  UNL1       -0.2726
     23 C         139.7431  145.0376  164.2857 C.3     1  UNL1        0.0721
     24 C         138.9062  144.0642  165.0616 C.3     1  UNL1        0.0188
     25 C         137.8550  143.5197  164.1404 C.3     1  UNL1        0.0188
     26 C         138.0423  144.1566  162.7954 C.3     1  UNL1        0.0721
@<TRIPOS>BOND
     1     7     8    1
     2     8     9    2
     3     9     1    1
     4     1     2   ar
     5     2     3   ar
     6     3     4   ar
     7     4    18    1
     8    18    19    1
     9    19    20    1
    10    20    21    1
    11    21    22    1
    12    22    23    1
    13    23    24    1
    14    24    25    1
    15    25    26    1
    16     4     5   ar
    17     5     6   ar
    18     9    10    1
    19    10    11    1
    20    11    12   ar
    21    12    13   ar
    22    13    14   ar
    23    14    15   ar
    24    15    16   ar
    25    16    17    1
    26    17     8    1
    27     6     1   ar
    28    16    11   ar
    29    26    22    1
@<TRIPOS>MOLECULE
*****
 26 29 0 0 0
SMALL
GASTEIGER

@<TRIPOS>ATOM
      1 C         139.8185  143.2412  164.7546 C.ar    1  UNL1        0.0349
      2 C         138.4946  143.8077  164.3350 C.ar    1  UNL1        0.0061
      3 C         138.3899  144.6157  163.0756 C.ar    1  UNL1        0.0370
      4 C         139.6091  144.8572  162.2359 C.ar    1  UNL1        0.1386
      5 C         140.9330  144.2907  162.6555 C.ar    1  UNL1        0.0370
      6 C         141.0378  143.4827  163.9149 C.ar    1  UNL1        0.0061
      7 C         139.1210  140.3235  164.7272 C.3     1  UNL1        0.0414
      8 C         139.5746  140.9743  166.0003 C.2     1  UNL1        0.0421
      9 C         139.9233  142.4331  166.0141 C.2     1  UNL1        0.1471
     10 O         140.3768  143.0839  167.2872 O.3     1  UNL1       -0.4528
     11 C         140.4815  142.2758  168.5466 C.ar    1  UNL1        0.1512
     12 C         140.9350  142.9266  169.8197 C.ar    1  UNL1        0.0380
     13 C         141.0398  142.1185  171.0791 C.ar    1  UNL1        0.0032
     14 C         140.6910  140.6597  171.0653 C.ar    1  UNL1        0.0007
     15 C         140.2376  140.0089  169.7922 C.ar    1  UNL1        0.0095
     16 C         140.1328  140.8170  168.5329 C.ar    1  UNL1        0.0637
     17 S         139.6793  140.1662  167.2597 S.3     1  UNL1       -0.0852
     18 O         139.5043  145.6652  160.9764 O.3     1  UNL1       -0.4754
     19 C         140.5416  145.5187  159.9028 C.3     1  UNL1        0.2068
     20 C         140.1466  145.0335  158.5396 C.3     1  UNL1        0.0646
     21 C         140.0572  143.5616  158.2642 C.3     1  UNL1        0.0759
     22 N         139.7850  142.6038  159.3860 N.3     1  UNL1       -0.2726
     23 C         138.4492  142.3397  160.0153 C.3     1  UNL1        0.0721
     24 C         138.6395  141.3146  161.0937 C.3     1  UNL1        0.0188
     25 C         140.0929  140.9452  161.1309 C.3     1  UNL1        0.0188
     26 C         140.8008  141.7420  160.0755 C.3     1  UNL1        0.0721
@<TRIPOS>BOND
     1     7     8    1
     2     8     9    2
     3     9     1    1
     4     1     2   ar
     5     2     3   ar
     6     3     4   ar
     7     4    18    1
     8    18    19    1
     9    19    20    1
    10    20    21    1
    11    21    22    1
    12    22    23    1
    13    23    24    1
    14    24    25    1
    15    25    26    1
    16     4     5   ar
    17     5     6   ar
    18     9    10    1
    19    10    11    1
    20    11    12   ar
    21    12    13   ar
    22    13    14   ar
    23    14    15   ar
    24    15    16   ar
    25    16    17    1
    26    17     8    1
    27     6     1   ar
    28    16    11   ar
    29    26    22    1
@<TRIPOS>MOLECULE
*****
 26 29 0 0 0
SMALL
GASTEIGER

@<TRIPOS>ATOM
      1 C         139.1599  140.1220  164.6986 C.ar    1  UNL1        0.0349
      2 C         138.1176  141.0741  164.1915 C.ar    1  UNL1        0.0061
      3 C         137.4994  140.8600  162.8417 C.ar    1  UNL1        0.0370
      4 C         137.9236  139.6938  161.9990 C.ar    1  UNL1        0.1386
      5 C         138.9659  138.7418  162.5061 C.ar    1  UNL1        0.0370
      6 C         139.5840  138.9559  163.8559 C.ar    1  UNL1        0.0061
      7 C         137.8906  138.9211  167.1372 C.3     1  UNL1        0.0414
      8 C         139.1435  139.7357  167.2678 C.2     1  UNL1        0.0421
      9 C         139.7781  140.3361  166.0484 C.2     1  UNL1        0.1471
     10 O         141.0309  141.1506  166.1789 O.3     1  UNL1       -0.4528
     11 C         141.6491  141.3647  167.5288 C.ar    1  UNL1        0.1512
     12 C         142.9019  142.1792  167.6593 C.ar    1  UNL1        0.0380
     13 C         143.5201  142.3932  169.0091 C.ar    1  UNL1        0.0032
     14 C         142.8854  141.7928  170.2284 C.ar    1  UNL1        0.0007
     15 C         141.6327  140.9783  170.0979 C.ar    1  UNL1        0.0095
     16 C         141.0145  140.7642  168.7481 C.ar    1  UNL1        0.0637
     17 S         139.7617  139.9497  168.6176 S.3     1  UNL1       -0.0852
     18 O         137.3053  139.4798  160.6491 O.3     1  UNL1       -0.4754
     19 C         137.8032  140.2541  159.4649 C.3     1  UNL1        0.2068
     20 C         139.1749  140.8604  159.4881 C.3     1  UNL1        0.0646
     21 C         139.3523  142.2999  159.8709 C.3     1  UNL1        0.0759
     22 N         140.0164  142.6546  161.1683 N.3     1  UNL1       -0.2726
     23 C         141.0853  141.8597  161.8579 C.3     1  UNL1        0.0721
     24 C         141.4576  142.5803  163.1197 C.3     1  UNL1        0.0188
     25 C         140.6188  143.8207  163.2098 C.3     1  UNL1        0.0188
     26 C         139.7281  143.8665  162.0038 C.3     1  UNL1        0.0721
@<TRIPOS>BOND
     1     7     8    1
     2     8     9    2
     3     9     1    1
     4     1     2   ar
     5     2     3   ar
     6     3     4   ar
     7     4    18    1
     8    18    19    1
     9    19    20    1
    10    20    21    1
    11    21    22    1
    12    22    23    1
    13    23    24    1
    14    24    25    1
    15    25    26    1
    16     4     5   ar
    17     5     6   ar
    18     9    10    1
    19    10    11    1
    20    11    12   ar
    21    12    13   ar
    22    13    14   ar
    23    14    15   ar
    24    15    16   ar
    25    16    17    1
    26    17     8    1
    27     6     1   ar
    28    16    11   ar
    29    26    22    1
@<TRIPOS>MOLECULE
*****
 26 29 0 0 0
SMALL
GASTEIGER

@<TRIPOS>ATOM
      1 C         140.6217  139.0889  164.5908 C.ar    1  UNL1        0.0349
      2 C         141.1792  139.8888  163.4510 C.ar    1  UNL1        0.0061
      3 C         140.7625  139.5800  162.0435 C.ar    1  UNL1        0.0370
      4 C         139.7883  138.4713  161.7759 C.ar    1  UNL1        0.1386
      5 C         139.2307  137.6714  162.9157 C.ar    1  UNL1        0.0370
      6 C         139.6474  137.9802  164.3231 C.ar    1  UNL1        0.0061
      7 C         143.3698  138.3473  165.5384 C.3     1  UNL1        0.0414
      8 C         142.4124  139.0268  166.4722 C.2     1  UNL1        0.0421
      9 C         141.0384  139.3976  165.9983 C.2     1  UNL1        0.1471
     10 O         140.0810  140.0772  166.9320 O.3     1  UNL1       -0.4528
     11 C         140.4977  140.3859  168.3395 C.ar    1  UNL1        0.1512
     12 C         139.5404  141.0655  169.2731 C.ar    1  UNL1        0.0380
     13 C         139.9571  141.3742  170.6806 C.ar    1  UNL1        0.0032
     14 C         141.3311  141.0034  171.1544 C.ar    1  UNL1        0.0007
     15 C         142.2885  140.3238  170.2208 C.ar    1  UNL1        0.0095
     16 C         141.8718  140.0151  168.8133 C.ar    1  UNL1        0.0637
     17 S         142.8291  139.3355  167.8796 S.3     1  UNL1       -0.0852
     18 O         139.3716  138.1626  160.3683 O.3     1  UNL1       -0.4754
     19 C         139.0259  139.2778  159.4267 C.3     1  UNL1        0.2068
     20 C         137.9266  140.2379  159.7728 C.3     1  UNL1        0.0646
     21 C         138.2592  141.6374  160.1981 C.3     1  UNL1        0.0759
     22 N         138.0772  142.0497  161.6288 N.3     1  UNL1       -0.2726
     23 C         138.4014  143.3955  162.2066 C.3     1  UNL1        0.0721
     24 C         138.0636  143.3662  163.6677 C.3     1  UNL1        0.0188
     25 C         137.5306  142.0023  163.9930 C.3     1  UNL1        0.0188
     26 C         137.5390  141.1887  162.7329 C.3     1  UNL1        0.0721
@<TRIPOS>BOND
     1     7     8    1
     2     8     9    2
     3     9     1    1
     4     1     2   ar
     5     2     3   ar
     6     3     4   ar
     7     4    18    1
     8    18    19    1
     9    19    20    1
    10    20    21    1
    11    21    22    1
    12    22    23    1
    13    23    24    1
    14    24    25    1
    15    25    26    1
    16     4     5   ar
    17     5     6   ar
    18     9    10    1
    19    10    11    1
    20    11    12   ar
    21    12    13   ar
    22    13    14   ar
    23    14    15   ar
    24    15    16   ar
    25    16    17    1
    26    17     8    1
    27     6     1   ar
    28    16    11   ar
    29    26    22    1
@<TRIPOS>MOLECULE
*****
 26 29 0 0 0
SMALL
GASTEIGER

@<TRIPOS>ATOM
      1 C         141.3958  141.6323  164.3248 C.ar    1  UNL1        0.0349
      2 C         140.6972  142.8068  163.7064 C.ar    1  UNL1        0.0061
      3 C         140.4423  142.8349  162.2285 C.ar    1  UNL1        0.0370
      4 C         140.8860  141.6884  161.3690 C.ar    1  UNL1        0.1386
      5 C         141.5846  140.5139  161.9874 C.ar    1  UNL1        0.0370
      6 C         141.8395  140.4859  163.4653 C.ar    1  UNL1        0.0061
      7 C         143.8565  142.9303  165.4474 C.3     1  UNL1        0.0414
      8 C         142.8810  142.2533  166.3640 C.2     1  UNL1        0.0421
      9 C         141.6507  141.6043  165.8027 C.2     1  UNL1        0.1471
     10 O         140.6753  140.9272  166.7193 O.3     1  UNL1       -0.4528
     11 C         140.9302  140.8992  168.1973 C.ar    1  UNL1        0.1512
     12 C         139.9548  140.2222  169.1139 C.ar    1  UNL1        0.0380
     13 C         140.2097  140.1941  170.5917 C.ar    1  UNL1        0.0032
     14 C         141.4401  140.8431  171.1530 C.ar    1  UNL1        0.0007
     15 C         142.4155  141.5201  170.2365 C.ar    1  UNL1        0.0095
     16 C         142.1605  141.5482  168.7586 C.ar    1  UNL1        0.0637
     17 S         143.1360  142.2252  167.8419 S.3     1  UNL1       -0.0852
     18 O         140.6311  141.7165  159.8910 O.3     1  UNL1       -0.4754
     19 C         139.2844  141.3307  159.3548 C.3     1  UNL1        0.2068
     20 C         138.7469  139.9518  159.5988 C.3     1  UNL1        0.0646
     21 C         137.6298  139.7448  160.5783 C.3     1  UNL1        0.0759
     22 N         137.9271  139.6463  162.0452 N.3     1  UNL1       -0.2726
     23 C         138.5567  138.4758  162.7406 C.3     1  UNL1        0.0721
     24 C         138.6657  138.8071  164.1995 C.3     1  UNL1        0.0188
     25 C         138.1035  140.1824  164.4057 C.3     1  UNL1        0.0188
     26 C         137.6470  140.7010  163.0743 C.3     1  UNL1        0.0721
@<TRIPOS>BOND
     1     7     8    1
     2     8     9    2
     3     9     1    1
     4     1     2   ar
     5     2     3   ar
     6     3     4   ar
     7     4    18    1
     8    18    19    1
     9    19    20    1
    10    20    21    1
    11    21    22    1
    12    22    23    1
    13    23    24    1
    14    24    25    1
    15    25    26    1
    16     4     5   ar
    17     5     6   ar
    18     9    10    1
    19    10    11    1
    20    11    12   ar
    21    12    13   ar
    22    13    14   ar
    23    14    15   ar
    24    15    16   ar
    25    16    17    1
    26    17     8    1
    27     6     1   ar
    28    16    11   ar
    29    26    22    1
@<TRIPOS>MOLECULE
*****
 26 29 0 0 0
SMALL
GASTEIGER

@<TRIPOS>ATOM
      1 C         139.9753  139.6096  162.1973 C.ar    1  UNL1        0.0349
      2 C         139.4446  138.3308  161.6202 C.ar    1  UNL1        0.0061
      3 C         139.2961  138.1831  160.1350 C.ar    1  UNL1        0.0370
      4 C         139.6782  139.3141  159.2268 C.ar    1  UNL1        0.1386
      5 C         140.2089  140.5928  159.8039 C.ar    1  UNL1        0.0370
      6 C         140.3574  140.7406  161.2892 C.ar    1  UNL1        0.0061
      7 C         137.7677  140.8449  163.8100 C.3     1  UNL1        0.0414
      8 C         139.0201  140.3750  164.4890 C.2     1  UNL1        0.0421
      9 C         140.1238  139.7574  163.6827 C.2     1  UNL1        0.1471
     10 O         141.3761  139.2875  164.3616 O.3     1  UNL1       -0.4528
     11 C         141.5247  139.4353  165.8469 C.ar    1  UNL1        0.1512
     12 C         142.7769  138.9655  166.5259 C.ar    1  UNL1        0.0380
     13 C         142.9254  139.1133  168.0111 C.ar    1  UNL1        0.0032
     14 C         141.8217  139.7310  168.8175 C.ar    1  UNL1        0.0007
     15 C         140.5694  140.2008  168.1385 C.ar    1  UNL1        0.0095
     16 C         140.4209  140.0530  166.6533 C.ar    1  UNL1        0.0637
     17 S         139.1686  140.5229  165.9743 S.3     1  UNL1       -0.0852
     18 O         139.5297  139.1662  157.7415 O.3     1  UNL1       -0.4754
     19 C         140.7326  138.8808  156.8921 C.3     1  UNL1        0.2068
     20 C         141.8384  138.0180  157.4238 C.3     1  UNL1        0.0646
     21 C         143.0831  138.6486  157.9746 C.3     1  UNL1        0.0759
     22 N         143.3118  138.6869  159.4565 N.3     1  UNL1       -0.2726
     23 C         143.0105  137.5809  160.4240 C.3     1  UNL1        0.0721
     24 C         143.3944  138.0483  161.7966 C.3     1  UNL1        0.0188
     25 C         143.9330  139.4432  161.6774 C.3     1  UNL1        0.0188
     26 C         143.8819  139.8379  160.2312 C.3     1  UNL1        0.0721
@<TRIPOS>BOND
     1     7     8    1
     2     8     9    2
     3     9     1    1
     4     1     2   ar
     5     2     3   ar
     6     3     4   ar
     7     4    18    1
     8    18    19    1
     9    19    20    1
    10    20    21    1
    11    21    22    1
    12    22    23    1
    13    23    24    1
    14    24    25    1
    15    25    26    1
    16     4     5   ar
    17     5     6   ar
    18     9    10    1
    19    10    11    1
    20    11    12   ar
    21    12    13   ar
    22    13    14   ar
    23    14    15   ar
    24    15    16   ar
    25    16    17    1
    26    17     8    1
    27     6     1   ar
    28    16    11   ar
    29    26    22    1
