@<TRIPOS>MOLECULE
*****
 33 36 0 0 0
SMALL
GASTEIGER

@<TRIPOS>ATOM
      1 C         142.5650  138.7009  159.7394 C.3     1  UNL1        0.0758
      2 C         141.0710  138.8240  159.6865 C.3     1  UNL1        0.0370
      3 C         140.2375  138.3407  160.8361 C.3     1  UNL1        0.0741
      4 N         140.8979  137.7343  162.0386 N.3     1  UNL1       -0.2688
      5 C         142.3919  137.6111  162.0915 C.3     1  UNL1        0.0741
      6 C         143.2254  138.0944  160.9419 C.3     1  UNL1        0.0370
      7 O         143.8859  141.3912  159.8709 O.2     1  UNL1       -0.2526
      8 C         144.0590  140.5293  158.6555 C.2     1  UNL1        0.3040
      9 N         143.3986  139.1842  158.5897 N.am    1  UNL1       -0.2903
     10 N         144.8926  141.0127  157.5059 N.am    1  UNL1       -0.2617
     11 C         145.1549  140.2658  156.2318 C.3     1  UNL1        0.0976
     12 C         146.0347  141.1192  155.3669 C.3     1  UNL1        0.0525
     13 C         146.3161  142.3935  156.1067 C.3     1  UNL1        0.1320
     14 O         147.1558  143.5334  155.6115 O.3     1  UNL1       -0.3827
     15 C         145.6102  142.3276  157.4286 C.3     1  UNL1        0.1241
     16 H         143.5122  138.6185  157.7920 H       1  UNL1        0.1509
     17 H         147.4967  143.3238  154.7279 H       1  UNL1        0.2104
     18 C         140.0643  137.2510  163.1882 C.3     1  UNL1        0.1007
     19 C         139.8514  138.1325  164.3830 C.ar    1  UNL1        0.0129
     20 C         138.5357  138.4192  165.0438 C.ar    1  UNL1        0.0176
     21 C         138.7879  139.3460  166.1959 C.ar    1  UNL1        0.0799
     22 N         140.2595  139.6320  166.2473 N.ar    1  UNL1       -0.3038
     23 C         140.9168  138.8820  165.1268 C.ar    1  UNL1        0.0772
     24 C         140.9522  140.5132  167.2440 C.ar    1  UNL1        0.0640
     25 C         142.2493  141.1758  166.8856 C.ar    1  UNL1        0.0175
     26 C         142.9419  142.0570  167.8823 C.ar    1  UNL1        0.0053
     27 C         142.3376  142.2758  169.2376 C.ar    1  UNL1        0.0715
     28 C         141.0405  141.6132  169.5961 C.ar    1  UNL1        0.0053
     29 C         140.3478  140.7320  168.5993 C.ar    1  UNL1        0.0175
     30 C         143.0302  143.1570  170.2343 C.3     1  UNL1        0.4186
     31 F         143.7230  144.0382  171.2311 F       1  UNL1       -0.1659
     32 F         141.7989  144.0073  170.3383 F       1  UNL1       -0.1659
     33 F         144.2617  142.3067  170.1304 F       1  UNL1       -0.1659
@<TRIPOS>BOND
     1     7     8    2
     2     8     9   am
     3     9     1    1
     4     1     2    1
     5     2     3    1
     6     3     4    1
     7     4    18    1
     8    18    19    1
     9    19    20   ar
    10    20    21   ar
    11    21    22   ar
    12    22    24    1
    13    24    25   ar
    14    25    26   ar
    15    26    27   ar
    16    27    30    1
    17    30    31    1
    18    30    32    1
    19    30    33    1
    20    27    28   ar
    21    28    29   ar
    22    22    23   ar
    23     4     5    1
    24     5     6    1
    25     8    10   am
    26    10    11    1
    27    11    12    1
    28    12    13    1
    29    13    14    1
    30    13    15    1
    31     6     1    1
    32    15    10    1
    33    23    19   ar
    34    29    24   ar
    35     9    16    1
    36    14    17    1
@<TRIPOS>MOLECULE
*****
 33 36 0 0 0
SMALL
GASTEIGER

@<TRIPOS>ATOM
      1 C         138.2213  140.1753  159.6664 C.3     1  UNL1        0.0758
      2 C         137.5596  140.4176  160.9906 C.3     1  UNL1        0.0370
      3 C         137.9014  139.5545  162.1688 C.3     1  UNL1        0.0741
      4 N         138.9049  138.4492  162.0229 N.3     1  UNL1       -0.2688
      5 C         139.5666  138.2070  160.6988 C.3     1  UNL1        0.0741
      6 C         139.2248  139.0701  159.5205 C.3     1  UNL1        0.0370
      7 O         139.9710  142.5067  158.9568 O.2     1  UNL1       -0.2526
      8 C         138.7543  142.2040  158.1334 C.2     1  UNL1        0.3040
      9 N         137.8795  141.0384  158.4881 N.am    1  UNL1       -0.2903
     10 N         138.4125  143.0671  156.9550 N.am    1  UNL1       -0.2617
     11 C         137.2347  142.8885  156.0436 C.3     1  UNL1        0.0976
     12 C         137.2827  143.9713  155.0065 C.3     1  UNL1        0.0525
     13 C         138.4903  144.8190  155.2772 C.3     1  UNL1        0.1320
     14 O         138.9236  146.0154  154.4830 O.3     1  UNL1       -0.3827
     15 C         139.1885  144.2602  156.4814 C.3     1  UNL1        0.1241
     16 H         137.0810  140.8398  157.9476 H       1  UNL1        0.1509
     17 H         138.2989  146.1645  153.7561 H       1  UNL1        0.2104
     18 C         139.2467  137.5862  163.2012 C.3     1  UNL1        0.1007
     19 C         140.3740  137.9727  164.1121 C.ar    1  UNL1        0.0129
     20 C         141.7174  137.3092  164.1828 C.ar    1  UNL1        0.0176
     21 C         142.5296  138.0169  165.2265 C.ar    1  UNL1        0.0799
     22 N         141.6881  139.1179  165.8010 N.ar    1  UNL1       -0.3038
     23 C         140.3559  139.0905  165.1122 C.ar    1  UNL1        0.0772
     24 C         142.1056  140.0776  166.8755 C.ar    1  UNL1        0.0640
     25 C         142.2494  139.6026  168.2909 C.ar    1  UNL1        0.0175
     26 C         142.6668  140.5623  169.3654 C.ar    1  UNL1        0.0053
     27 C         142.9405  141.9971  169.0245 C.ar    1  UNL1        0.0715
     28 C         142.7967  142.4723  167.6090 C.ar    1  UNL1        0.0053
     29 C         142.3792  141.5125  166.5345 C.ar    1  UNL1        0.0175
     30 C         143.3579  142.9569  170.0990 C.3     1  UNL1        0.4186
     31 F         143.7753  143.9167  171.1735 F       1  UNL1       -0.1659
     32 F         144.7362  142.3652  170.0920 F       1  UNL1       -0.1659
     33 F         141.9795  143.5487  170.1060 F       1  UNL1       -0.1659
@<TRIPOS>BOND
     1     7     8    2
     2     8     9   am
     3     9     1    1
     4     1     2    1
     5     2     3    1
     6     3     4    1
     7     4    18    1
     8    18    19    1
     9    19    20   ar
    10    20    21   ar
    11    21    22   ar
    12    22    24    1
    13    24    25   ar
    14    25    26   ar
    15    26    27   ar
    16    27    30    1
    17    30    31    1
    18    30    32    1
    19    30    33    1
    20    27    28   ar
    21    28    29   ar
    22    22    23   ar
    23     4     5    1
    24     5     6    1
    25     8    10   am
    26    10    11    1
    27    11    12    1
    28    12    13    1
    29    13    14    1
    30    13    15    1
    31     6     1    1
    32    15    10    1
    33    23    19   ar
    34    29    24   ar
    35     9    16    1
    36    14    17    1
@<TRIPOS>MOLECULE
*****
 33 36 0 0 0
SMALL
GASTEIGER

@<TRIPOS>ATOM
      1 C         138.8727  140.9095  159.5566 C.3     1  UNL1        0.0758
      2 C         138.1046  141.1243  160.8269 C.3     1  UNL1        0.0370
      3 C         138.1955  140.1199  161.9373 C.3     1  UNL1        0.0741
      4 N         139.0545  138.9007  161.7773 N.3     1  UNL1       -0.2688
      5 C         139.8226  138.6859  160.5070 C.3     1  UNL1        0.0741
      6 C         139.7318  139.6903  159.3966 C.3     1  UNL1        0.0370
      7 O         136.8458  140.5532  157.3738 O.2     1  UNL1       -0.2526
      8 C         137.7684  141.7358  157.3548 C.2     1  UNL1        0.3040
      9 N         138.7819  141.9139  158.4462 N.am    1  UNL1       -0.2903
     10 N         137.6776  142.7402  156.2444 N.am    1  UNL1       -0.2617
     11 C         138.5285  143.9661  156.0927 C.3     1  UNL1        0.0976
     12 C         138.0967  144.6786  154.8453 C.3     1  UNL1        0.0525
     13 C         136.9789  143.8930  154.2261 C.3     1  UNL1        0.1320
     14 O         136.2484  144.2438  152.9639 O.3     1  UNL1       -0.3827
     15 C         136.7199  142.6950  155.0908 C.3     1  UNL1        0.1241
     16 H         139.3874  142.6901  158.4337 H       1  UNL1        0.1509
     17 H         136.6097  145.0668  152.5993 H       1  UNL1        0.2104
     18 C         139.1454  137.8963  162.8877 C.3     1  UNL1        0.1007
     19 C         139.2328  138.3587  164.3120 C.ar    1  UNL1        0.0129
     20 C         138.3177  137.9520  165.4287 C.ar    1  UNL1        0.0176
     21 C         138.7699  138.6509  166.6765 C.ar    1  UNL1        0.0799
     22 N         139.9646  139.4896  166.3309 N.ar    1  UNL1       -0.3038
     23 C         140.2506  139.3090  164.8696 C.ar    1  UNL1        0.0772
     24 C         140.7375  140.3566  167.2800 C.ar    1  UNL1        0.0640
     25 C         140.3082  141.7735  167.5206 C.ar    1  UNL1        0.0175
     26 C         141.0811  142.6405  168.4697 C.ar    1  UNL1        0.0053
     27 C         142.2833  142.0907  169.1783 C.ar    1  UNL1        0.0715
     28 C         142.7127  140.6737  168.9378 C.ar    1  UNL1        0.0053
     29 C         141.9398  139.8067  167.9886 C.ar    1  UNL1        0.0175
     30 C         143.0562  142.9577  170.1274 C.3     1  UNL1        0.4186
     31 F         143.8290  143.8248  171.0766 F       1  UNL1       -0.1659
     32 F         144.2496  142.0621  169.9738 F       1  UNL1       -0.1659
     33 F         141.8627  143.8534  170.2811 F       1  UNL1       -0.1659
@<TRIPOS>BOND
     1     7     8    2
     2     8     9   am
     3     9     1    1
     4     1     2    1
     5     2     3    1
     6     3     4    1
     7     4    18    1
     8    18    19    1
     9    19    20   ar
    10    20    21   ar
    11    21    22   ar
    12    22    24    1
    13    24    25   ar
    14    25    26   ar
    15    26    27   ar
    16    27    30    1
    17    30    31    1
    18    30    32    1
    19    30    33    1
    20    27    28   ar
    21    28    29   ar
    22    22    23   ar
    23     4     5    1
    24     5     6    1
    25     8    10   am
    26    10    11    1
    27    11    12    1
    28    12    13    1
    29    13    14    1
    30    13    15    1
    31     6     1    1
    32    15    10    1
    33    23    19   ar
    34    29    24   ar
    35     9    16    1
    36    14    17    1
@<TRIPOS>MOLECULE
*****
 33 36 0 0 0
SMALL
GASTEIGER

@<TRIPOS>ATOM
      1 C         142.0168  143.4365  157.1106 C.3     1  UNL1        0.0758
      2 C         141.3663  142.0908  156.9855 C.3     1  UNL1        0.0370
      3 C         141.9248  140.9156  157.7317 C.3     1  UNL1        0.0741
      4 N         143.1338  141.0861  158.6030 N.3     1  UNL1       -0.2688
      5 C         143.7844  142.4319  158.7280 C.3     1  UNL1        0.0741
      6 C         143.2259  143.6071  157.9818 C.3     1  UNL1        0.0370
      7 O         140.1311  145.3250  158.4808 O.2     1  UNL1       -0.2526
      8 C         140.5155  145.5561  157.0494 C.2     1  UNL1        0.3040
      9 N         141.4583  144.6119  156.3643 N.am    1  UNL1       -0.2903
     10 N         139.9570  146.7314  156.3032 N.am    1  UNL1       -0.2617
     11 C         140.2488  147.0890  154.8760 C.3     1  UNL1        0.0976
     12 C         139.4808  148.3340  154.5438 C.3     1  UNL1        0.0525
     13 C         138.7145  148.7458  155.7658 C.3     1  UNL1        0.1320
     14 O         137.8123  149.9386  155.8804 O.3     1  UNL1       -0.3827
     15 C         139.0088  147.7553  156.8532 C.3     1  UNL1        0.1241
     16 H         141.7106  144.7635  155.4248 H       1  UNL1        0.1509
     17 H         137.7957  150.4138  155.0349 H       1  UNL1        0.2104
     18 C         143.6923  139.9108  159.3492 C.3     1  UNL1        0.1007
     19 C         143.3625  139.7178  160.7997 C.ar    1  UNL1        0.0129
     20 C         144.3240  139.8324  161.9453 C.ar    1  UNL1        0.0176
     21 C         143.5690  139.5618  163.2129 C.ar    1  UNL1        0.0799
     22 N         142.1409  139.2799  162.8507 N.ar    1  UNL1       -0.3038
     23 C         142.0133  139.3764  161.3593 C.ar    1  UNL1        0.0772
     24 C         141.0347  138.9581  163.8113 C.ar    1  UNL1        0.0640
     25 C         140.9943  139.6188  165.1573 C.ar    1  UNL1        0.0175
     26 C         139.8881  139.2970  166.1179 C.ar    1  UNL1        0.0053
     27 C         138.8223  138.3145  165.7325 C.ar    1  UNL1        0.0715
     28 C         138.8627  137.6538  164.3865 C.ar    1  UNL1        0.0053
     29 C         139.9689  137.9756  163.4259 C.ar    1  UNL1        0.0175
     30 C         137.7161  137.9928  166.6931 C.3     1  UNL1        0.4186
     31 F         136.6099  137.6709  167.6537 F       1  UNL1       -0.1659
     32 F         137.5554  139.4528  166.9970 F       1  UNL1       -0.1659
     33 F         137.8769  136.5326  166.3891 F       1  UNL1       -0.1659
@<TRIPOS>BOND
     1     7     8    2
     2     8     9   am
     3     9     1    1
     4     1     2    1
     5     2     3    1
     6     3     4    1
     7     4    18    1
     8    18    19    1
     9    19    20   ar
    10    20    21   ar
    11    21    22   ar
    12    22    24    1
    13    24    25   ar
    14    25    26   ar
    15    26    27   ar
    16    27    30    1
    17    30    31    1
    18    30    32    1
    19    30    33    1
    20    27    28   ar
    21    28    29   ar
    22    22    23   ar
    23     4     5    1
    24     5     6    1
    25     8    10   am
    26    10    11    1
    27    11    12    1
    28    12    13    1
    29    13    14    1
    30    13    15    1
    31     6     1    1
    32    15    10    1
    33    23    19   ar
    34    29    24   ar
    35     9    16    1
    36    14    17    1
@<TRIPOS>MOLECULE
*****
 33 36 0 0 0
SMALL
GASTEIGER

@<TRIPOS>ATOM
      1 C         138.5287  140.0702  159.1442 C.3     1  UNL1        0.0758
      2 C         137.9614  139.5014  160.4110 C.3     1  UNL1        0.0370
      3 C         137.6341  140.4087  161.5598 C.3     1  UNL1        0.0741
      4 N         137.8740  141.8846  161.4418 N.3     1  UNL1       -0.2688
      5 C         138.4413  142.4534  160.1751 C.3     1  UNL1        0.0741
      6 C         138.7686  141.5462  159.0263 C.3     1  UNL1        0.0370
      7 O         141.1266  138.5702  159.1103 O.2     1  UNL1       -0.2526
      8 C         140.1549  138.4130  157.9784 C.2     1  UNL1        0.3040
      9 N         138.8560  139.1629  157.9954 N.am    1  UNL1       -0.2903
     10 N         140.4823  137.5058  156.8295 N.am    1  UNL1       -0.2617
     11 C         139.6140  137.2494  155.6335 C.3     1  UNL1        0.0976
     12 C         140.3304  136.2808  154.7398 C.3     1  UNL1        0.0525
     13 C         141.6414  135.9386  155.3835 C.3     1  UNL1        0.1320
     14 O         142.6767  135.0036  154.8325 O.3     1  UNL1       -0.3827
     15 C         141.7352  136.6957  156.6750 C.3     1  UNL1        0.1241
     16 H         138.2183  139.0597  157.2525 H       1  UNL1        0.1509
     17 H         142.3705  134.6457  153.9845 H       1  UNL1        0.2104
     18 C         137.5467  142.7919  162.5907 C.3     1  UNL1        0.1007
     19 C         138.5519  143.0128  163.6819 C.ar    1  UNL1        0.0129
     20 C         139.2719  144.2966  163.9707 C.ar    1  UNL1        0.0176
     21 C         140.1786  144.0660  165.1432 C.ar    1  UNL1        0.0799
     22 N         140.0190  142.6395  165.5790 N.ar    1  UNL1       -0.3038
     23 C         139.0137  141.9887  164.6759 C.ar    1  UNL1        0.0772
     24 C         140.7384  141.9799  166.7180 C.ar    1  UNL1        0.0640
     25 C         140.0048  141.0329  167.6207 C.ar    1  UNL1        0.0175
     26 C         140.7242  140.3733  168.7596 C.ar    1  UNL1        0.0053
     27 C         142.1773  140.6606  168.9959 C.ar    1  UNL1        0.0715
     28 C         142.9110  141.6076  168.0932 C.ar    1  UNL1        0.0053
     29 C         142.1916  142.2672  166.9542 C.ar    1  UNL1        0.0175
     30 C         142.8967  140.0009  170.1348 C.3     1  UNL1        0.4186
     31 F         143.6162  139.3413  171.2738 F       1  UNL1       -0.1659
     32 F         141.9447  138.8438  170.0660 F       1  UNL1       -0.1659
     33 F         143.8488  141.1581  170.2037 F       1  UNL1       -0.1659
@<TRIPOS>BOND
     1     7     8    2
     2     8     9   am
     3     9     1    1
     4     1     2    1
     5     2     3    1
     6     3     4    1
     7     4    18    1
     8    18    19    1
     9    19    20   ar
    10    20    21   ar
    11    21    22   ar
    12    22    24    1
    13    24    25   ar
    14    25    26   ar
    15    26    27   ar
    16    27    30    1
    17    30    31    1
    18    30    32    1
    19    30    33    1
    20    27    28   ar
    21    28    29   ar
    22    22    23   ar
    23     4     5    1
    24     5     6    1
    25     8    10   am
    26    10    11    1
    27    11    12    1
    28    12    13    1
    29    13    14    1
    30    13    15    1
    31     6     1    1
    32    15    10    1
    33    23    19   ar
    34    29    24   ar
    35     9    16    1
    36    14    17    1
@<TRIPOS>MOLECULE
*****
 33 36 0 0 0
SMALL
GASTEIGER

@<TRIPOS>ATOM
      1 C         139.4736  141.3212  158.8812 C.3     1  UNL1        0.0758
      2 C         140.7108  140.8911  159.6122 C.3     1  UNL1        0.0370
      3 C         140.6113  139.9092  160.7417 C.3     1  UNL1        0.0741
      4 N         139.2747  139.3574  161.1404 N.3     1  UNL1       -0.2688
      5 C         138.0375  139.7875  160.4094 C.3     1  UNL1        0.0741
      6 C         138.1369  140.7694  159.2799 C.3     1  UNL1        0.0370
      7 O         139.6366  144.2606  159.4587 O.2     1  UNL1       -0.2526
      8 C         139.6545  143.7727  158.0403 C.2     1  UNL1        0.3040
      9 N         139.5730  142.3031  157.7516 N.am    1  UNL1       -0.2903
     10 N         139.7539  144.7547  156.9107 N.am    1  UNL1       -0.2617
     11 C         139.7826  144.4174  155.4493 C.3     1  UNL1        0.0976
     12 C         139.8885  145.7005  154.6795 C.3     1  UNL1        0.0525
     13 C         139.9252  146.8307  155.6651 C.3     1  UNL1        0.1320
     14 O         140.0272  148.2892  155.3306 O.3     1  UNL1       -0.3827
     15 C         139.8420  146.2461  157.0440 C.3     1  UNL1        0.1241
     16 H         139.5848  141.9829  156.8207 H       1  UNL1        0.1509
     17 H         140.0667  148.3981  154.3675 H       1  UNL1        0.2104
     18 C         139.1752  138.3755  162.2700 C.3     1  UNL1        0.1007
     19 C         140.1085  138.4808  163.4396 C.ar    1  UNL1        0.0129
     20 C         141.1008  137.4423  163.8720 C.ar    1  UNL1        0.0176
     21 C         141.8189  137.9627  165.0818 C.ar    1  UNL1        0.0799
     22 N         141.2704  139.3228  165.3970 N.ar    1  UNL1       -0.3038
     23 C         140.2133  139.6430  164.3821 C.ar    1  UNL1        0.0772
     24 C         141.7030  140.2074  166.5285 C.ar    1  UNL1        0.0640
     25 C         141.1303  140.0051  167.8999 C.ar    1  UNL1        0.0175
     26 C         141.5629  140.8897  169.0314 C.ar    1  UNL1        0.0053
     27 C         142.5683  141.9766  168.7915 C.ar    1  UNL1        0.0715
     28 C         143.1412  142.1790  167.4200 C.ar    1  UNL1        0.0053
     29 C         142.7085  141.2944  166.2886 C.ar    1  UNL1        0.0175
     30 C         143.0010  142.8612  169.9230 C.3     1  UNL1        0.4186
     31 F         143.4337  143.7458  171.0545 F       1  UNL1       -0.1659
     32 F         141.6357  143.4812  169.9603 F       1  UNL1       -0.1659
     33 F         144.3664  142.2412  169.8857 F       1  UNL1       -0.1659
@<TRIPOS>BOND
     1     7     8    2
     2     8     9   am
     3     9     1    1
     4     1     2    1
     5     2     3    1
     6     3     4    1
     7     4    18    1
     8    18    19    1
     9    19    20   ar
    10    20    21   ar
    11    21    22   ar
    12    22    24    1
    13    24    25   ar
    14    25    26   ar
    15    26    27   ar
    16    27    30    1
    17    30    31    1
    18    30    32    1
    19    30    33    1
    20    27    28   ar
    21    28    29   ar
    22    22    23   ar
    23     4     5    1
    24     5     6    1
    25     8    10   am
    26    10    11    1
    27    11    12    1
    28    12    13    1
    29    13    14    1
    30    13    15    1
    31     6     1    1
    32    15    10    1
    33    23    19   ar
    34    29    24   ar
    35     9    16    1
    36    14    17    1
@<TRIPOS>MOLECULE
*****
 33 36 0 0 0
SMALL
GASTEIGER

@<TRIPOS>ATOM
      1 C         139.1853  146.0993  154.6524 C.3     1  UNL1        0.0758
      2 C         137.8119  145.5434  154.8860 C.3     1  UNL1        0.0370
      3 C         137.6470  144.1515  155.4201 C.3     1  UNL1        0.0741
      4 N         138.8556  143.3155  155.7206 N.3     1  UNL1       -0.2688
      5 C         140.2291  143.8714  155.4871 C.3     1  UNL1        0.0741
      6 C         140.3939  145.2633  154.9529 C.3     1  UNL1        0.0370
      7 O         138.8058  148.4574  156.4677 O.2     1  UNL1       -0.2526
      8 C         139.1605  148.6703  155.0259 C.2     1  UNL1        0.3040
      9 N         139.3502  147.4913  154.1182 N.am    1  UNL1       -0.2903
     10 N         139.3254  150.0623  154.4917 N.am    1  UNL1       -0.2617
     11 C         139.6765  150.4291  153.0803 C.3     1  UNL1        0.0976
     12 C         139.7363  151.9254  152.9914 C.3     1  UNL1        0.0525
     13 C         139.4220  152.4831  154.3480 C.3     1  UNL1        0.1320
     14 O         139.3706  153.9370  154.7132 O.3     1  UNL1       -0.3827
     15 C         139.1680  151.3317  155.2752 C.3     1  UNL1        0.1241
     16 H         139.5829  147.6311  153.1719 H       1  UNL1        0.1509
     17 H         139.5737  154.4741  153.9314 H       1  UNL1        0.2104
     18 C         138.6907  141.9235  156.2548 C.3     1  UNL1        0.1007
     19 C         138.5526  141.6982  157.7313 C.ar    1  UNL1        0.0129
     20 C         138.3067  140.3797  158.4028 C.ar    1  UNL1        0.0176
     21 C         138.2382  140.6185  159.8821 C.ar    1  UNL1        0.0799
     22 N         138.4418  142.0847  160.1249 N.ar    1  UNL1       -0.3038
     23 C         138.6361  142.7520  158.7956 C.ar    1  UNL1        0.0772
     24 C         138.4497  142.7642  161.4621 C.ar    1  UNL1        0.0640
     25 C         139.2263  144.0329  161.6541 C.ar    1  UNL1        0.0175
     26 C         139.2342  144.7125  162.9913 C.ar    1  UNL1        0.0053
     27 C         138.4654  144.1232  164.1365 C.ar    1  UNL1        0.0715
     28 C         137.6887  142.8544  163.9446 C.ar    1  UNL1        0.0053
     29 C         137.6808  142.1749  162.6074 C.ar    1  UNL1        0.0175
     30 C         138.4733  144.8027  165.4737 C.3     1  UNL1        0.4186
     31 F         138.4813  145.4823  166.8110 F       1  UNL1       -0.1659
     32 F         136.9788  144.6925  165.5386 F       1  UNL1       -0.1659
     33 F         139.9679  144.9130  165.4089 F       1  UNL1       -0.1659
@<TRIPOS>BOND
     1     7     8    2
     2     8     9   am
     3     9     1    1
     4     1     2    1
     5     2     3    1
     6     3     4    1
     7     4    18    1
     8    18    19    1
     9    19    20   ar
    10    20    21   ar
    11    21    22   ar
    12    22    24    1
    13    24    25   ar
    14    25    26   ar
    15    26    27   ar
    16    27    30    1
    17    30    31    1
    18    30    32    1
    19    30    33    1
    20    27    28   ar
    21    28    29   ar
    22    22    23   ar
    23     4     5    1
    24     5     6    1
    25     8    10   am
    26    10    11    1
    27    11    12    1
    28    12    13    1
    29    13    14    1
    30    13    15    1
    31     6     1    1
    32    15    10    1
    33    23    19   ar
    34    29    24   ar
    35     9    16    1
    36    14    17    1
@<TRIPOS>MOLECULE
*****
 33 36 0 0 0
SMALL
GASTEIGER

@<TRIPOS>ATOM
      1 C         140.8890  139.1937  160.3127 C.3     1  UNL1        0.0758
      2 C         140.0912  138.6422  159.1685 C.3     1  UNL1        0.0370
      3 C         140.7784  138.2560  157.8923 C.3     1  UNL1        0.0741
      4 N         142.2634  138.4214  157.7604 N.3     1  UNL1       -0.2688
      5 C         143.0612  138.9729  158.9046 C.3     1  UNL1        0.0741
      6 C         142.3740  139.3591  160.1807 C.3     1  UNL1        0.0370
      7 O         140.3637  137.1235  162.4194 O.2     1  UNL1       -0.2526
      8 C         139.9391  138.5448  162.6422 C.2     1  UNL1        0.3040
      9 N         140.2018  139.5799  161.5889 N.am    1  UNL1       -0.2903
     10 N         139.2519  138.9310  163.9185 N.am    1  UNL1       -0.2617
     11 C         138.7724  140.3055  164.2805 C.3     1  UNL1        0.0976
     12 C         138.1477  140.2345  165.6425 C.3     1  UNL1        0.0525
     13 C         138.2412  138.8163  166.1220 C.3     1  UNL1        0.1320
     14 O         137.7403  138.2951  167.4363 O.3     1  UNL1       -0.3827
     15 C         138.9237  138.0107  165.0565 C.3     1  UNL1        0.1241
     16 H         139.9231  140.5128  161.7351 H       1  UNL1        0.1509
     17 H         137.3399  139.0207  167.9404 H       1  UNL1        0.2104
     18 C         142.9506  138.0352  156.4842 C.3     1  UNL1        0.1007
     19 C         143.0500  136.5904  156.0933 C.ar    1  UNL1        0.0129
     20 C         142.8546  136.0348  154.7138 C.ar    1  UNL1        0.0176
     21 C         143.0460  134.5486  154.7813 C.ar    1  UNL1        0.0799
     22 N         143.3597  134.1857  156.2026 N.ar    1  UNL1       -0.3038
     23 C         143.3621  135.4476  157.0134 C.ar    1  UNL1        0.0772
     24 C         143.6245  132.8035  156.7217 C.ar    1  UNL1        0.0640
     25 C         142.6965  131.6792  156.3687 C.ar    1  UNL1        0.0175
     26 C         142.9613  130.2971  156.8879 C.ar    1  UNL1        0.0053
     27 C         144.1540  130.0393  157.7601 C.ar    1  UNL1        0.0715
     28 C         145.0820  131.1636  158.1132 C.ar    1  UNL1        0.0053
     29 C         144.8172  132.5457  157.5940 C.ar    1  UNL1        0.0175
     30 C         144.4187  128.6571  158.2793 C.3     1  UNL1        0.4186
     31 F         144.6834  127.2750  158.7985 F       1  UNL1       -0.1659
     32 F         145.1980  128.3400  157.0375 F       1  UNL1       -0.1659
     33 F         143.6394  128.9743  159.5211 F       1  UNL1       -0.1659
@<TRIPOS>BOND
     1     7     8    2
     2     8     9   am
     3     9     1    1
     4     1     2    1
     5     2     3    1
     6     3     4    1
     7     4    18    1
     8    18    19    1
     9    19    20   ar
    10    20    21   ar
    11    21    22   ar
    12    22    24    1
    13    24    25   ar
    14    25    26   ar
    15    26    27   ar
    16    27    30    1
    17    30    31    1
    18    30    32    1
    19    30    33    1
    20    27    28   ar
    21    28    29   ar
    22    22    23   ar
    23     4     5    1
    24     5     6    1
    25     8    10   am
    26    10    11    1
    27    11    12    1
    28    12    13    1
    29    13    14    1
    30    13    15    1
    31     6     1    1
    32    15    10    1
    33    23    19   ar
    34    29    24   ar
    35     9    16    1
    36    14    17    1
@<TRIPOS>MOLECULE
*****
 33 36 0 0 0
SMALL
GASTEIGER

@<TRIPOS>ATOM
      1 C         138.6898  139.8657  164.9017 C.3     1  UNL1        0.0758
      2 C         138.1588  141.0865  164.2107 C.3     1  UNL1        0.0370
      3 C         137.7462  141.0132  162.7704 C.3     1  UNL1        0.0741
      4 N         137.8645  139.7191  162.0213 N.3     1  UNL1       -0.2688
      5 C         138.3955  138.4983  162.7124 C.3     1  UNL1        0.0741
      6 C         138.8081  138.5716  164.1526 C.3     1  UNL1        0.0370
      7 O         141.5726  139.5180  165.6558 O.2     1  UNL1       -0.2526
      8 C         140.5438  139.7651  166.7190 C.2     1  UNL1        0.3040
      9 N         139.1024  139.9390  166.3420 N.am    1  UNL1       -0.2903
     10 N         140.9565  139.8384  168.1593 N.am    1  UNL1       -0.2617
     11 C         140.0451  140.0781  169.3264 C.3     1  UNL1        0.0976
     12 C         140.8783  140.0727  170.5738 C.3     1  UNL1        0.0525
     13 C         142.3045  139.8296  170.1776 C.3     1  UNL1        0.1320
     14 O         143.4765  139.7461  171.1098 O.3     1  UNL1       -0.3827
     15 C         142.3528  139.6848  168.6854 C.3     1  UNL1        0.1241
     16 H         138.4272  140.1012  167.0399 H       1  UNL1        0.1509
     17 H         143.1736  139.8742  172.0224 H       1  UNL1        0.2104
     18 C         137.4519  139.6458  160.5810 C.3     1  UNL1        0.1007
     19 C         138.2394  140.3804  159.5369 C.ar    1  UNL1        0.0129
     20 C         139.3535  139.8107  158.7097 C.ar    1  UNL1        0.0176
     21 C         139.8537  140.8919  157.7982 C.ar    1  UNL1        0.0799
     22 N         139.0487  142.1299  158.0620 N.ar    1  UNL1       -0.3038
     23 C         138.0510  141.8137  159.1366 C.ar    1  UNL1        0.0772
     24 C         139.2127  143.4518  157.3724 C.ar    1  UNL1        0.0640
     25 C         140.0014  144.5467  158.0273 C.ar    1  UNL1        0.0175
     26 C         140.1654  145.8686  157.3377 C.ar    1  UNL1        0.0053
     27 C         139.5406  146.0956  155.9931 C.ar    1  UNL1        0.0715
     28 C         138.7518  145.0007  155.3381 C.ar    1  UNL1        0.0053
     29 C         138.5878  143.6788  156.0277 C.ar    1  UNL1        0.0175
     30 C         139.7045  147.4175  155.3035 C.3     1  UNL1        0.4186
     31 F         139.8685  148.7395  154.6139 F       1  UNL1       -0.1659
     32 F         140.3602  146.7305  154.1424 F       1  UNL1       -0.1659
     33 F         139.0488  148.1046  156.4646 F       1  UNL1       -0.1659
@<TRIPOS>BOND
     1     7     8    2
     2     8     9   am
     3     9     1    1
     4     1     2    1
     5     2     3    1
     6     3     4    1
     7     4    18    1
     8    18    19    1
     9    19    20   ar
    10    20    21   ar
    11    21    22   ar
    12    22    24    1
    13    24    25   ar
    14    25    26   ar
    15    26    27   ar
    16    27    30    1
    17    30    31    1
    18    30    32    1
    19    30    33    1
    20    27    28   ar
    21    28    29   ar
    22    22    23   ar
    23     4     5    1
    24     5     6    1
    25     8    10   am
    26    10    11    1
    27    11    12    1
    28    12    13    1
    29    13    14    1
    30    13    15    1
    31     6     1    1
    32    15    10    1
    33    23    19   ar
    34    29    24   ar
    35     9    16    1
    36    14    17    1
