@<TRIPOS>MOLECULE
*****
 36 39 0 0 0
SMALL
GASTEIGER

@<TRIPOS>ATOM
      1 S         144.2483  140.4673  163.3958 S.O2    1  UNL1        0.0736
      2 O         145.5091  141.0289  163.9832 O.2     1  UNL1       -0.1499
      3 O         142.9875  139.9057  162.8083 O.2     1  UNL1       -0.1499
      4 C         143.6825  140.2957  164.7743 C.ar    1  UNL1        0.1251
      5 C         143.3603  141.5002  165.6082 C.ar    1  UNL1        0.0199
      6 C         142.7945  141.3285  166.9868 C.ar    1  UNL1       -0.0029
      7 C         142.5508  139.9523  167.5315 C.ar    1  UNL1       -0.0221
      8 C         142.8730  138.7478  166.6975 C.ar    1  UNL1       -0.0029
      9 C         143.4388  138.9194  165.3190 C.ar    1  UNL1        0.0199
     10 C         141.9850  139.7806  168.9099 C.3     1  UNL1        0.0264
     11 C         140.5296  140.0429  169.1613 C.3     1  UNL1        0.0047
     12 C         139.6169  140.3657  168.0155 C.3     1  UNL1        0.0003
     13 C         138.7674  139.2895  167.4071 C.3     1  UNL1        0.0001
     14 C         138.6669  139.1666  165.9156 C.3     1  UNL1        0.0028
     15 C         138.2328  140.3439  165.0936 C.3     1  UNL1        0.0174
     16 C         138.1323  140.2210  163.6021 C.3     1  UNL1        0.0721
     17 N         138.4658  138.9209  162.9324 N.3     1  UNL1       -0.2715
     18 C         138.3653  138.7980  161.4409 C.3     1  UNL1        0.0896
     19 C         138.8998  137.7436  163.7544 C.3     1  UNL1        0.0721
     20 C         139.0004  137.8665  165.2459 C.3     1  UNL1        0.0174
     21 N         144.8141  140.6390  162.0173 N.pl3   1  UNL1       -0.2152
     22 H         145.7353  140.3503  161.8238 H       1  UNL1        0.1737
     23 C         143.6823  142.7211  160.9526 C.ar    1  UNL1       -0.0074
     24 C         142.8447  143.3325  159.8689 C.ar    1  UNL1       -0.0014
     25 C         142.3013  142.4732  158.7660 C.ar    1  UNL1        0.0207
     26 C         142.5955  141.0025  158.7469 C.ar    1  UNL1        0.1036
     27 N         142.1998  139.9120  157.7959 N.ar    1  UNL1       -0.1692
     28 N         142.7928  138.6267  158.2920 N.ar    1  UNL1       -0.2473
     29 C         142.6489  137.2814  157.6443 C.3     1  UNL1        0.1538
     30 C         143.5551  138.9227  159.5495 C.ar    1  UNL1        0.0979
     31 C         143.4331  140.3911  159.8307 C.ar    1  UNL1        0.0524
     32 C         143.9765  141.2504  160.9335 C.ar    1  UNL1        0.0637
     33 C         144.2258  143.5804  162.0555 C.3     1  UNL1        0.0276
     34 C         143.8182  145.1039  164.1201 C.3     1  UNL1        0.0003
     35 C         143.3023  144.1316  163.1011 C.3     1  UNL1        0.0044
     36 C         141.8628  143.7104  163.1278 C.3     1  UNL1        0.0003
@<TRIPOS>BOND
     1    34    35    1
     2    35    36    1
     3    35    33    1
     4    33    23    1
     5    23    24   ar
     6    24    25   ar
     7    25    26   ar
     8    26    27   ar
     9    27    28   ar
    10    28    29    1
    11    28    30   ar
    12    30    31   ar
    13    31    32   ar
    14    32    21    1
    15    21     1    1
    16     1     2    2
    17     1     3    2
    18     1     4    1
    19     4     5   ar
    20     5     6   ar
    21     6     7   ar
    22     7    10    1
    23    10    11    1
    24    11    12    1
    25    12    13    1
    26    13    14    1
    27    14    15    1
    28    15    16    1
    29    16    17    1
    30    17    18    1
    31    17    19    1
    32    19    20    1
    33     7     8   ar
    34     8     9   ar
    35    32    23   ar
    36     9     4   ar
    37    31    26   ar
    38    20    14    1
    39    21    22    1
@<TRIPOS>MOLECULE
*****
 36 39 0 0 0
SMALL
GASTEIGER

@<TRIPOS>ATOM
      1 S         142.7789  143.7060  163.3855 S.O2    1  UNL1        0.0736
      2 O         141.4985  143.2901  162.7241 O.2     1  UNL1       -0.1499
      3 O         144.0594  144.1220  164.0469 O.2     1  UNL1       -0.1499
      4 C         142.2256  143.2923  164.7169 C.ar    1  UNL1        0.1251
      5 C         143.1184  142.6393  165.7300 C.ar    1  UNL1        0.0199
      6 C         142.5650  142.2255  167.0614 C.ar    1  UNL1       -0.0029
      7 C         141.1188  142.4647  167.3797 C.ar    1  UNL1       -0.0221
      8 C         140.2260  143.1177  166.3664 C.ar    1  UNL1       -0.0029
      9 C         140.7793  143.5315  165.0351 C.ar    1  UNL1        0.0199
     10 C         140.5654  142.0510  168.7110 C.3     1  UNL1        0.0264
     11 C         139.6975  140.8320  168.8164 C.3     1  UNL1        0.0047
     12 C         139.8004  139.7468  167.7860 C.3     1  UNL1        0.0003
     13 C         138.5666  139.2546  167.0893 C.3     1  UNL1        0.0001
     14 C         138.5458  139.1375  165.5940 C.3     1  UNL1        0.0028
     15 C         138.1546  140.3176  164.7547 C.3     1  UNL1        0.0174
     16 C         138.1338  140.2005  163.2594 C.3     1  UNL1        0.0721
     17 N         138.5042  138.9034  162.6035 N.3     1  UNL1       -0.2715
     18 C         138.4834  138.7863  161.1082 C.3     1  UNL1        0.0896
     19 C         138.8953  137.7233  163.4428 C.3     1  UNL1        0.0721
     20 C         138.9161  137.8404  164.9381 C.3     1  UNL1        0.0174
     21 N         143.3323  144.1198  162.0541 N.pl3   1  UNL1       -0.2152
     22 H         143.7753  144.9934  161.9552 H       1  UNL1        0.1737
     23 C         143.8981  141.8696  160.8853 C.ar    1  UNL1       -0.0074
     24 C         143.7764  140.9524  159.7048 C.ar    1  UNL1       -0.0014
     25 C         142.9671  141.3682  158.5122 C.ar    1  UNL1        0.0207
     26 C         142.2795  142.7012  158.5003 C.ar    1  UNL1        0.1036
     27 N         141.4200  143.3781  157.4741 N.ar    1  UNL1       -0.1692
     28 N         141.0105  144.7136  158.0206 N.ar    1  UNL1       -0.2473
     29 C         140.1463  145.7234  157.3252 C.3     1  UNL1        0.1538
     30 C         141.6169  144.8622  159.3844 C.ar    1  UNL1        0.0979
     31 C         142.4013  143.6185  159.6810 C.ar    1  UNL1        0.0524
     32 C         143.2105  143.2026  160.8735 C.ar    1  UNL1        0.0637
     33 C         144.7074  141.4537  162.0779 C.3     1  UNL1        0.0276
     34 C         142.7526  139.9624  162.9171 C.3     1  UNL1        0.0003
     35 C         144.1842  140.4007  163.0091 C.3     1  UNL1        0.0044
     36 C         145.0924  139.7858  164.0325 C.3     1  UNL1        0.0003
@<TRIPOS>BOND
     1    34    35    1
     2    35    36    1
     3    35    33    1
     4    33    23    1
     5    23    24   ar
     6    24    25   ar
     7    25    26   ar
     8    26    27   ar
     9    27    28   ar
    10    28    29    1
    11    28    30   ar
    12    30    31   ar
    13    31    32   ar
    14    32    21    1
    15    21     1    1
    16     1     2    2
    17     1     3    2
    18     1     4    1
    19     4     5   ar
    20     5     6   ar
    21     6     7   ar
    22     7    10    1
    23    10    11    1
    24    11    12    1
    25    12    13    1
    26    13    14    1
    27    14    15    1
    28    15    16    1
    29    16    17    1
    30    17    18    1
    31    17    19    1
    32    19    20    1
    33     7     8   ar
    34     8     9   ar
    35    32    23   ar
    36     9     4   ar
    37    31    26   ar
    38    20    14    1
    39    21    22    1
@<TRIPOS>MOLECULE
*****
 36 39 0 0 0
SMALL
GASTEIGER

@<TRIPOS>ATOM
      1 S         142.2071  138.1068  160.9747 S.O2    1  UNL1        0.0736
      2 O         141.0941  138.6950  160.1592 O.2     1  UNL1       -0.1499
      3 O         143.3203  137.5185  161.7902 O.2     1  UNL1       -0.1499
      4 C         141.2702  137.9416  162.1343 C.ar    1  UNL1        0.1251
      5 C         139.7881  138.0240  161.9188 C.ar    1  UNL1        0.0199
      6 C         138.8511  137.8588  163.0784 C.ar    1  UNL1       -0.0029
      7 C         139.3963  137.6112  164.4538 C.ar    1  UNL1       -0.0221
      8 C         140.8785  137.5288  164.6693 C.ar    1  UNL1       -0.0029
      9 C         141.8155  137.6939  163.5096 C.ar    1  UNL1        0.0199
     10 C         138.4595  137.4460  165.6134 C.3     1  UNL1        0.0264
     11 C         138.1123  138.6267  166.4711 C.3     1  UNL1        0.0047
     12 C         139.1987  139.5185  166.9951 C.3     1  UNL1        0.0003
     13 C         139.3475  140.9124  166.4614 C.3     1  UNL1        0.0001
     14 C         139.3500  141.1523  164.9807 C.3     1  UNL1        0.0028
     15 C         138.0526  141.3009  164.2428 C.3     1  UNL1        0.0174
     16 C         138.0552  141.5408  162.7621 C.3     1  UNL1        0.0721
     17 N         139.3552  141.6323  162.0194 N.3     1  UNL1       -0.2715
     18 C         139.3578  141.8723  160.5387 C.3     1  UNL1        0.0896
     19 C         140.6527  141.4838  162.7574 C.3     1  UNL1        0.0721
     20 C         140.6501  141.2438  164.2380 C.3     1  UNL1        0.0174
     21 N         143.1441  138.2719  159.8150 N.pl3   1  UNL1       -0.2152
     22 H         143.5262  137.4790  159.3741 H       1  UNL1        0.1737
     23 C         143.3866  139.9752  157.8682 C.ar    1  UNL1       -0.0074
     24 C         143.7413  141.3484  157.3803 C.ar    1  UNL1       -0.0014
     25 C         144.2083  142.3920  158.3513 C.ar    1  UNL1        0.0207
     26 C         144.3206  142.0622  159.8103 C.ar    1  UNL1        0.1036
     27 N         144.7482  142.8785  160.9938 N.ar    1  UNL1       -0.1692
     28 N         144.6578  142.0096  162.2132 N.ar    1  UNL1       -0.2473
     29 C         144.9922  142.4216  163.6162 C.3     1  UNL1        0.1538
     30 C         144.1743  140.6563  161.7833 C.ar    1  UNL1        0.0979
     31 C         143.9658  140.6888  160.2982 C.ar    1  UNL1        0.0524
     32 C         143.4988  139.6453  159.3271 C.ar    1  UNL1        0.0637
     33 C         142.9196  138.9315  156.8971 C.3     1  UNL1        0.0276
     34 C         140.9435  137.2540  156.7212 C.3     1  UNL1        0.0003
     35 C         141.4529  138.6648  156.7307 C.3     1  UNL1        0.0044
     36 C         140.4955  139.8089  156.5737 C.3     1  UNL1        0.0003
@<TRIPOS>BOND
     1    34    35    1
     2    35    36    1
     3    35    33    1
     4    33    23    1
     5    23    24   ar
     6    24    25   ar
     7    25    26   ar
     8    26    27   ar
     9    27    28   ar
    10    28    29    1
    11    28    30   ar
    12    30    31   ar
    13    31    32   ar
    14    32    21    1
    15    21     1    1
    16     1     2    2
    17     1     3    2
    18     1     4    1
    19     4     5   ar
    20     5     6   ar
    21     6     7   ar
    22     7    10    1
    23    10    11    1
    24    11    12    1
    25    12    13    1
    26    13    14    1
    27    14    15    1
    28    15    16    1
    29    16    17    1
    30    17    18    1
    31    17    19    1
    32    19    20    1
    33     7     8   ar
    34     8     9   ar
    35    32    23   ar
    36     9     4   ar
    37    31    26   ar
    38    20    14    1
    39    21    22    1
@<TRIPOS>MOLECULE
*****
 36 39 0 0 0
SMALL
GASTEIGER

@<TRIPOS>ATOM
      1 S         142.0083  137.9898  160.8903 S.O2    1  UNL1        0.0736
      2 O         143.2048  137.7139  161.7518 O.2     1  UNL1       -0.1499
      3 O         140.8117  138.2658  160.0287 O.2     1  UNL1       -0.1499
      4 C         141.1223  137.9205  162.0987 C.ar    1  UNL1        0.1251
      5 C         139.7165  138.4389  162.0287 C.ar    1  UNL1        0.0199
      6 C         138.8305  138.3696  163.2371 C.ar    1  UNL1       -0.0029
      7 C         139.3504  137.7819  164.5156 C.ar    1  UNL1       -0.0221
      8 C         140.7563  137.2635  164.5855 C.ar    1  UNL1       -0.0029
      9 C         141.6422  137.3328  163.3771 C.ar    1  UNL1        0.0199
     10 C         138.4645  137.7125  165.7239 C.3     1  UNL1        0.0264
     11 C         138.0183  138.9750  166.4002 C.3     1  UNL1        0.0047
     12 C         138.7890  139.5120  167.5697 C.3     1  UNL1        0.0003
     13 C         139.7730  140.6267  167.3715 C.3     1  UNL1        0.0001
     14 C         141.0146  140.3961  166.5620 C.3     1  UNL1        0.0028
     15 C         141.1426  141.0022  165.1960 C.3     1  UNL1        0.0174
     16 C         142.3842  140.7716  164.3865 C.3     1  UNL1        0.0721
     17 N         143.4978  139.9348  164.9431 N.3     1  UNL1       -0.2715
     18 C         144.7394  139.7042  164.1337 C.3     1  UNL1        0.0896
     19 C         143.3697  139.3287  166.3092 C.3     1  UNL1        0.0721
     20 C         142.1281  139.5593  167.1187 C.3     1  UNL1        0.0174
     21 N         142.8943  138.0591  159.6819 N.pl3   1  UNL1       -0.2152
     22 H         143.4788  137.2999  159.4559 H       1  UNL1        0.1737
     23 C         142.4980  139.1835  157.3735 C.ar    1  UNL1       -0.0074
     24 C         142.4934  140.4095  156.5095 C.ar    1  UNL1       -0.0014
     25 C         142.8805  141.7375  157.0898 C.ar    1  UNL1        0.0207
     26 C         143.2721  141.8393  158.5341 C.ar    1  UNL1        0.1036
     27 N         143.6983  143.0033  159.3788 N.ar    1  UNL1       -0.1692
     28 N         143.9663  142.4965  160.7649 N.ar    1  UNL1       -0.2473
     29 C         144.4159  143.3220  161.9339 C.3     1  UNL1        0.1538
     30 C         143.7057  141.0194  160.7769 C.ar    1  UNL1        0.0979
     31 C         143.2767  140.6132  159.3982 C.ar    1  UNL1        0.0524
     32 C         142.8897  139.2853  158.8179 C.ar    1  UNL1        0.0637
     33 C         142.1109  137.8555  156.7932 C.3     1  UNL1        0.0276
     34 C         143.1551  135.4768  156.8351 C.3     1  UNL1        0.0003
     35 C         143.1723  136.8946  156.3456 C.3     1  UNL1        0.0044
     36 C         144.2509  137.3515  155.4086 C.3     1  UNL1        0.0003
@<TRIPOS>BOND
     1    34    35    1
     2    35    36    1
     3    35    33    1
     4    33    23    1
     5    23    24   ar
     6    24    25   ar
     7    25    26   ar
     8    26    27   ar
     9    27    28   ar
    10    28    29    1
    11    28    30   ar
    12    30    31   ar
    13    31    32   ar
    14    32    21    1
    15    21     1    1
    16     1     2    2
    17     1     3    2
    18     1     4    1
    19     4     5   ar
    20     5     6   ar
    21     6     7   ar
    22     7    10    1
    23    10    11    1
    24    11    12    1
    25    12    13    1
    26    13    14    1
    27    14    15    1
    28    15    16    1
    29    16    17    1
    30    17    18    1
    31    17    19    1
    32    19    20    1
    33     7     8   ar
    34     8     9   ar
    35    32    23   ar
    36     9     4   ar
    37    31    26   ar
    38    20    14    1
    39    21    22    1
@<TRIPOS>MOLECULE
*****
 36 39 0 0 0
SMALL
GASTEIGER

@<TRIPOS>ATOM
      1 S         143.4508  140.1138  165.0466 S.O2    1  UNL1        0.0736
      2 O         143.1826  141.4736  165.6202 O.2     1  UNL1       -0.1499
      3 O         143.7190  138.7539  164.4730 O.2     1  UNL1       -0.1499
      4 C         143.7854  140.7377  163.7241 C.ar    1  UNL1        0.1251
      5 C         143.6070  139.9532  162.4582 C.ar    1  UNL1        0.0199
      6 C         143.9415  140.5771  161.1358 C.ar    1  UNL1       -0.0029
      7 C         144.4545  141.9855  161.0792 C.ar    1  UNL1       -0.0221
      8 C         144.6329  142.7700  162.3453 C.ar    1  UNL1       -0.0029
      9 C         144.2984  142.1461  163.6677 C.ar    1  UNL1        0.0199
     10 C         144.7891  142.6094  159.7569 C.3     1  UNL1        0.0264
     11 C         143.6903  143.0730  158.8469 C.3     1  UNL1        0.0047
     12 C         142.2719  143.0948  159.3344 C.3     1  UNL1        0.0003
     13 C         141.7992  144.2117  160.2170 C.3     1  UNL1        0.0001
     14 C         141.3700  143.9245  161.6253 C.3     1  UNL1        0.0028
     15 C         141.5216  144.9755  162.6846 C.3     1  UNL1        0.0174
     16 C         141.0924  144.6883  164.0929 C.3     1  UNL1        0.0721
     17 N         140.5117  143.3500  164.4419 N.3     1  UNL1       -0.2715
     18 C         140.0825  143.0628  165.8502 C.3     1  UNL1        0.0896
     19 C         140.3601  142.2990  163.3825 C.3     1  UNL1        0.0721
     20 C         140.7893  142.5862  161.9742 C.3     1  UNL1        0.0174
     21 N         143.1162  139.4900  166.3690 N.pl3   1  UNL1       -0.2152
     22 H         143.8117  139.0157  166.8796 H       1  UNL1        0.1737
     23 C         141.5032  139.9414  168.3550 C.ar    1  UNL1       -0.0074
     24 C         140.1091  140.0402  168.8996 C.ar    1  UNL1       -0.0014
     25 C         138.9338  139.7863  168.0029 C.ar    1  UNL1        0.0207
     26 C         139.1527  139.4336  166.5614 C.ar    1  UNL1        0.1036
     27 N         138.1967  139.1311  165.4459 N.ar    1  UNL1       -0.1692
     28 N         139.0000  138.8453  164.2118 N.ar    1  UNL1       -0.2473
     29 C         138.4478  138.4951  162.8618 C.3     1  UNL1        0.1538
     30 C         140.4525  138.9712  164.5646 C.ar    1  UNL1        0.0979
     31 C         140.5468  139.3348  166.0168 C.ar    1  UNL1        0.0524
     32 C         141.7221  139.5888  166.9136 C.ar    1  UNL1        0.0637
     33 C         142.6786  140.1954  169.2518 C.3     1  UNL1        0.0276
     34 C         143.8410  142.5169  169.3467 C.3     1  UNL1        0.0003
     35 C         142.8504  141.5365  169.9013 C.3     1  UNL1        0.0044
     36 C         142.0317  141.8973  171.1053 C.3     1  UNL1        0.0003
@<TRIPOS>BOND
     1    34    35    1
     2    35    36    1
     3    35    33    1
     4    33    23    1
     5    23    24   ar
     6    24    25   ar
     7    25    26   ar
     8    26    27   ar
     9    27    28   ar
    10    28    29    1
    11    28    30   ar
    12    30    31   ar
    13    31    32   ar
    14    32    21    1
    15    21     1    1
    16     1     2    2
    17     1     3    2
    18     1     4    1
    19     4     5   ar
    20     5     6   ar
    21     6     7   ar
    22     7    10    1
    23    10    11    1
    24    11    12    1
    25    12    13    1
    26    13    14    1
    27    14    15    1
    28    15    16    1
    29    16    17    1
    30    17    18    1
    31    17    19    1
    32    19    20    1
    33     7     8   ar
    34     8     9   ar
    35    32    23   ar
    36     9     4   ar
    37    31    26   ar
    38    20    14    1
    39    21    22    1
@<TRIPOS>MOLECULE
*****
 36 39 0 0 0
SMALL
GASTEIGER

@<TRIPOS>ATOM
      1 S         143.4312  142.9464  163.5660 S.O2    1  UNL1        0.0736
      2 O         143.0936  141.7859  162.6777 O.2     1  UNL1       -0.1499
      3 O         143.7688  144.1070  164.4544 O.2     1  UNL1       -0.1499
      4 C         143.1076  142.1166  164.7730 C.ar    1  UNL1        0.1251
      5 C         142.6010  140.7148  164.6055 C.ar    1  UNL1        0.0199
      6 C         142.2774  139.8850  165.8125 C.ar    1  UNL1       -0.0029
      7 C         142.4605  140.4571  167.1870 C.ar    1  UNL1       -0.0221
      8 C         142.9672  141.8590  167.3544 C.ar    1  UNL1       -0.0029
      9 C         143.2907  142.6888  166.1475 C.ar    1  UNL1        0.0199
     10 C         142.1369  139.6274  168.3939 C.3     1  UNL1        0.0264
     11 C         140.8684  139.8742  169.1555 C.3     1  UNL1        0.0047
     12 C         139.6571  140.4006  168.4445 C.3     1  UNL1        0.0003
     13 C         138.7572  139.4603  167.6989 C.3     1  UNL1        0.0001
     14 C         138.7737  139.4372  166.1992 C.3     1  UNL1        0.0028
     15 C         138.6630  140.7191  165.4282 C.3     1  UNL1        0.0174
     16 C         138.6795  140.6960  163.9285 C.3     1  UNL1        0.0721
     17 N         138.8067  139.3911  163.1998 N.3     1  UNL1       -0.2715
     18 C         138.8231  139.3680  161.7000 C.3     1  UNL1        0.0896
     19 C         138.9173  138.1092  163.9708 C.3     1  UNL1        0.0721
     20 C         138.9009  138.1323  165.4705 C.3     1  UNL1        0.0174
     21 N         143.7548  143.7762  162.3591 N.pl3   1  UNL1       -0.2152
     22 H         144.5999  144.2797  162.3200 H       1  UNL1        0.1737
     23 C         141.4746  144.5397  161.3752 C.ar    1  UNL1       -0.0074
     24 C         140.5106  144.6024  160.2278 C.ar    1  UNL1       -0.0014
     25 C         140.8626  143.9643  158.9167 C.ar    1  UNL1        0.0207
     26 C         142.1787  143.2634  158.7531 C.ar    1  UNL1        0.1036
     27 N         142.7967  142.5476  157.5888 N.ar    1  UNL1       -0.1692
     28 N         144.1427  142.0425  158.0167 N.ar    1  UNL1       -0.2473
     29 C         145.1057  141.2694  157.1653 C.3     1  UNL1        0.1538
     30 C         144.3566  142.4461  159.4454 C.ar    1  UNL1        0.0979
     31 C         143.1427  143.2007  159.9006 C.ar    1  UNL1        0.0524
     32 C         142.7907  143.8389  161.2116 C.ar    1  UNL1        0.0637
     33 C         141.1227  145.1779  162.6863 C.3     1  UNL1        0.0276
     34 C         140.1159  144.1097  164.8300 C.3     1  UNL1        0.0003
     35 C         139.9327  144.6937  163.4605 C.3     1  UNL1        0.0044
     36 C         138.5594  144.7934  162.8653 C.3     1  UNL1        0.0003
@<TRIPOS>BOND
     1    34    35    1
     2    35    36    1
     3    35    33    1
     4    33    23    1
     5    23    24   ar
     6    24    25   ar
     7    25    26   ar
     8    26    27   ar
     9    27    28   ar
    10    28    29    1
    11    28    30   ar
    12    30    31   ar
    13    31    32   ar
    14    32    21    1
    15    21     1    1
    16     1     2    2
    17     1     3    2
    18     1     4    1
    19     4     5   ar
    20     5     6   ar
    21     6     7   ar
    22     7    10    1
    23    10    11    1
    24    11    12    1
    25    12    13    1
    26    13    14    1
    27    14    15    1
    28    15    16    1
    29    16    17    1
    30    17    18    1
    31    17    19    1
    32    19    20    1
    33     7     8   ar
    34     8     9   ar
    35    32    23   ar
    36     9     4   ar
    37    31    26   ar
    38    20    14    1
    39    21    22    1
@<TRIPOS>MOLECULE
*****
 36 39 0 0 0
SMALL
GASTEIGER

@<TRIPOS>ATOM
      1 S         142.6884  140.9666  162.5975 S.O2    1  UNL1        0.0736
      2 O         143.3966  142.2501  162.9152 O.2     1  UNL1       -0.1499
      3 O         141.9801  139.6830  162.2797 O.2     1  UNL1       -0.1499
      4 C         142.5780  140.6648  164.0627 C.ar    1  UNL1        0.1251
      5 C         142.4557  139.2443  164.5288 C.ar    1  UNL1        0.0199
      6 C         142.3454  138.9426  165.9940 C.ar    1  UNL1       -0.0029
      7 C         142.3573  140.0613  166.9931 C.ar    1  UNL1       -0.0221
      8 C         142.4796  141.4818  166.5270 C.ar    1  UNL1       -0.0029
      9 C         142.5900  141.7836  165.0618 C.ar    1  UNL1        0.0199
     10 C         142.2470  139.7596  168.4582 C.3     1  UNL1        0.0264
     11 C         140.9095  139.8098  169.1356 C.3     1  UNL1        0.0047
     12 C         139.7230  140.3742  168.4120 C.3     1  UNL1        0.0003
     13 C         138.7471  139.4544  167.7400 C.3     1  UNL1        0.0001
     14 C         138.7270  139.3455  166.2441 C.3     1  UNL1        0.0028
     15 C         138.8133  137.9989  165.5890 C.3     1  UNL1        0.0174
     16 C         138.7932  137.8899  164.0931 C.3     1  UNL1        0.0721
     17 N         138.6867  139.1275  163.2523 N.3     1  UNL1       -0.2715
     18 C         138.6666  139.0186  161.7564 C.3     1  UNL1        0.0896
     19 C         138.6004  140.4741  163.9074 C.3     1  UNL1        0.0721
     20 C         138.6205  140.5831  165.4033 C.3     1  UNL1        0.0174
     21 N         142.7987  141.2683  161.1323 N.pl3   1  UNL1       -0.2152
     22 H         143.6831  141.4140  160.7250 H       1  UNL1        0.1737
     23 C         141.4950  140.6100  158.9837 C.ar    1  UNL1       -0.0074
     24 C         140.2580  140.6898  158.1391 C.ar    1  UNL1       -0.0014
     25 C         139.0875  141.5077  158.5986 C.ar    1  UNL1        0.0207
     26 C         139.1542  142.2458  159.9027 C.ar    1  UNL1        0.1036
     27 N         138.1659  143.1249  160.6101 N.ar    1  UNL1       -0.1692
     28 N         138.7921  143.5884  161.8919 N.ar    1  UNL1       -0.2473
     29 C         138.1549  144.4868  162.9101 C.3     1  UNL1        0.1538
     30 C         140.1675  142.9958  161.9767 C.ar    1  UNL1        0.0979
     31 C         140.3913  142.1660  160.7473 C.ar    1  UNL1        0.0524
     32 C         141.5617  141.3481  160.2878 C.ar    1  UNL1        0.0637
     33 C         142.6655  139.7921  158.5242 C.3     1  UNL1        0.0276
     34 C         142.2020  137.4823  157.4287 C.3     1  UNL1        0.0003
     35 C         142.6179  138.2958  158.6183 C.3     1  UNL1        0.0044
     36 C         142.9863  137.6129  159.9021 C.3     1  UNL1        0.0003
@<TRIPOS>BOND
     1    34    35    1
     2    35    36    1
     3    35    33    1
     4    33    23    1
     5    23    24   ar
     6    24    25   ar
     7    25    26   ar
     8    26    27   ar
     9    27    28   ar
    10    28    29    1
    11    28    30   ar
    12    30    31   ar
    13    31    32   ar
    14    32    21    1
    15    21     1    1
    16     1     2    2
    17     1     3    2
    18     1     4    1
    19     4     5   ar
    20     5     6   ar
    21     6     7   ar
    22     7    10    1
    23    10    11    1
    24    11    12    1
    25    12    13    1
    26    13    14    1
    27    14    15    1
    28    15    16    1
    29    16    17    1
    30    17    18    1
    31    17    19    1
    32    19    20    1
    33     7     8   ar
    34     8     9   ar
    35    32    23   ar
    36     9     4   ar
    37    31    26   ar
    38    20    14    1
    39    21    22    1
@<TRIPOS>MOLECULE
*****
 36 39 0 0 0
SMALL
GASTEIGER

@<TRIPOS>ATOM
      1 S         139.1400  142.1422  160.7351 S.O2    1  UNL1        0.0736
      2 O         140.3106  141.2427  160.4693 O.2     1  UNL1       -0.1499
      3 O         137.9694  143.0418  161.0008 O.2     1  UNL1       -0.1499
      4 C         139.2344  141.8323  162.1996 C.ar    1  UNL1        0.1251
      5 C         140.5397  141.3874  162.7896 C.ar    1  UNL1        0.0199
      6 C         140.6340  141.0775  164.2542 C.ar    1  UNL1       -0.0029
      7 C         139.4230  141.2124  165.1289 C.ar    1  UNL1       -0.0221
      8 C         138.1175  141.6573  164.5389 C.ar    1  UNL1       -0.0029
      9 C         138.0232  141.9673  163.0743 C.ar    1  UNL1        0.0199
     10 C         139.5172  140.9026  166.5934 C.3     1  UNL1        0.0264
     11 C         139.1100  139.5513  167.1018 C.3     1  UNL1        0.0047
     12 C         138.0874  138.7463  166.3560 C.3     1  UNL1        0.0003
     13 C         138.4998  137.5048  165.6221 C.3     1  UNL1        0.0001
     14 C         139.3429  137.6094  164.3859 C.3     1  UNL1        0.0028
     15 C         138.7003  137.9019  163.0624 C.3     1  UNL1        0.0174
     16 C         139.5434  138.0065  161.8262 C.3     1  UNL1        0.0721
     17 N         141.0291  137.8185  161.9135 N.3     1  UNL1       -0.2715
     18 C         141.8721  137.9231  160.6772 C.3     1  UNL1        0.0896
     19 C         141.6716  137.5261  163.2369 C.3     1  UNL1        0.0721
     20 C         140.8285  137.4215  164.4731 C.3     1  UNL1        0.0174
     21 N         139.0457  142.4521  159.2705 N.pl3   1  UNL1       -0.2152
     22 H         138.1723  142.4255  158.8170 H       1  UNL1        0.1737
     23 C         140.8984  144.1622  158.6436 C.ar    1  UNL1       -0.0074
     24 C         142.1348  144.5126  157.8700 C.ar    1  UNL1       -0.0014
     25 C         142.7549  143.5034  156.9496 C.ar    1  UNL1        0.0207
     26 C         142.1386  142.1438  156.8029 C.ar    1  UNL1        0.1036
     27 N         142.5227  140.9514  155.9779 N.ar    1  UNL1       -0.1692
     28 N         141.5237  139.8641  156.2416 N.ar    1  UNL1       -0.2473
     29 C         141.5259  138.4964  155.6256 C.3     1  UNL1        0.1538
     30 C         140.5222  140.3844  157.2296 C.ar    1  UNL1        0.0979
     31 C         140.9022  141.7934  157.5765 C.ar    1  UNL1        0.0524
     32 C         140.2821  142.8026  158.4968 C.ar    1  UNL1        0.0637
     33 C         140.2783  145.1714  159.5640 C.3     1  UNL1        0.0276
     34 C         139.9349  146.0682  161.9780 C.3     1  UNL1        0.0003
     35 C         140.7224  145.2545  160.9943 C.3     1  UNL1        0.0044
     36 C         141.9541  144.5240  161.4409 C.3     1  UNL1        0.0003
@<TRIPOS>BOND
     1    34    35    1
     2    35    36    1
     3    35    33    1
     4    33    23    1
     5    23    24   ar
     6    24    25   ar
     7    25    26   ar
     8    26    27   ar
     9    27    28   ar
    10    28    29    1
    11    28    30   ar
    12    30    31   ar
    13    31    32   ar
    14    32    21    1
    15    21     1    1
    16     1     2    2
    17     1     3    2
    18     1     4    1
    19     4     5   ar
    20     5     6   ar
    21     6     7   ar
    22     7    10    1
    23    10    11    1
    24    11    12    1
    25    12    13    1
    26    13    14    1
    27    14    15    1
    28    15    16    1
    29    16    17    1
    30    17    18    1
    31    17    19    1
    32    19    20    1
    33     7     8   ar
    34     8     9   ar
    35    32    23   ar
    36     9     4   ar
    37    31    26   ar
    38    20    14    1
    39    21    22    1
@<TRIPOS>MOLECULE
*****
 36 39 0 0 0
SMALL
GASTEIGER

@<TRIPOS>ATOM
      1 S         142.3816  138.1763  161.0160 S.O2    1  UNL1        0.0736
      2 O         143.5012  137.6741  161.8786 O.2     1  UNL1       -0.1499
      3 O         141.2619  138.6785  160.1532 O.2     1  UNL1       -0.1499
      4 C         141.4157  137.9585  162.1428 C.ar    1  UNL1        0.1251
      5 C         141.9248  137.7691  163.5410 C.ar    1  UNL1        0.0199
      6 C         140.9590  137.5514  164.6678 C.ar    1  UNL1       -0.0029
      7 C         139.4840  137.5231  164.3965 C.ar    1  UNL1       -0.0221
      8 C         138.9749  137.7125  162.9982 C.ar    1  UNL1       -0.0029
      9 C         139.9407  137.9303  161.8714 C.ar    1  UNL1        0.0199
     10 C         138.5182  137.3054  165.5232 C.3     1  UNL1        0.0264
     11 C         138.0850  138.4625  166.3739 C.3     1  UNL1        0.0047
     12 C         138.2067  139.8637  165.8524 C.3     1  UNL1        0.0003
     13 C         139.4064  140.6929  166.2030 C.3     1  UNL1        0.0001
     14 C         139.9692  141.6583  165.2024 C.3     1  UNL1        0.0028
     15 C         140.3403  141.1836  163.8288 C.3     1  UNL1        0.0174
     16 C         140.9031  142.1490  162.8282 C.3     1  UNL1        0.0721
     17 N         141.0950  143.5891  163.2012 N.3     1  UNL1       -0.2715
     18 C         141.6578  144.5545  162.2007 C.3     1  UNL1        0.0896
     19 C         140.7239  144.0639  164.5749 C.3     1  UNL1        0.0721
     20 C         140.1611  143.0985  165.5755 C.3     1  UNL1        0.0174
     21 N         143.3474  138.3940  159.8891 N.pl3   1  UNL1       -0.2152
     22 H         143.7773  137.6230  159.4534 H       1  UNL1        0.1737
     23 C         143.5847  140.1257  157.9670 C.ar    1  UNL1       -0.0074
     24 C         143.8955  141.5182  157.5040 C.ar    1  UNL1       -0.0014
     25 C         144.2798  142.5716  158.5004 C.ar    1  UNL1        0.0207
     26 C         144.3534  142.2324  159.9597 C.ar    1  UNL1        0.1036
     27 N         144.7009  143.0549  161.1650 N.ar    1  UNL1       -0.1692
     28 N         144.6048  142.1706  162.3728 N.ar    1  UNL1       -0.2473
     29 C         144.8692  142.5829  163.7906 C.3     1  UNL1        0.1538
     30 C         144.1979  140.8017  161.9140 C.ar    1  UNL1        0.0979
     31 C         144.0426  140.8399  160.4226 C.ar    1  UNL1        0.0524
     32 C         143.6582  139.7865  159.4262 C.ar    1  UNL1        0.0637
     33 C         143.2003  139.0723  156.9706 C.3     1  UNL1        0.0276
     34 C         141.4640  138.0848  155.3093 C.3     1  UNL1        0.0003
     35 C         141.8069  139.0371  156.4164 C.3     1  UNL1        0.0044
     36 C         140.7563  139.9541  156.9692 C.3     1  UNL1        0.0003
@<TRIPOS>BOND
     1    34    35    1
     2    35    36    1
     3    35    33    1
     4    33    23    1
     5    23    24   ar
     6    24    25   ar
     7    25    26   ar
     8    26    27   ar
     9    27    28   ar
    10    28    29    1
    11    28    30   ar
    12    30    31   ar
    13    31    32   ar
    14    32    21    1
    15    21     1    1
    16     1     2    2
    17     1     3    2
    18     1     4    1
    19     4     5   ar
    20     5     6   ar
    21     6     7   ar
    22     7    10    1
    23    10    11    1
    24    11    12    1
    25    12    13    1
    26    13    14    1
    27    14    15    1
    28    15    16    1
    29    16    17    1
    30    17    18    1
    31    17    19    1
    32    19    20    1
    33     7     8   ar
    34     8     9   ar
    35    32    23   ar
    36     9     4   ar
    37    31    26   ar
    38    20    14    1
    39    21    22    1
