@<TRIPOS>MOLECULE
*****
 35 39 0 0 0
SMALL
GASTEIGER

@<TRIPOS>ATOM
      1 C         140.2670  138.7582  160.8474 C.ar    1  UNL1        0.1065
      2 N         141.5218  138.2046  160.2400 N.ar    1  UNL1       -0.1679
      3 N         141.4487  138.4109  158.7561 N.ar    1  UNL1       -0.2340
      4 C         140.1487  139.0921  158.4463 C.ar    1  UNL1        0.1653
      5 N         139.5356  139.5447  157.1543 N.ar    1  UNL1       -0.2050
      6 C         138.1921  140.2119  157.1548 C.ar    1  UNL1        0.2014
      7 N         137.4618  140.4265  158.4473 N.ar    1  UNL1       -0.2093
      8 C         138.0749  139.9739  159.7393 C.ar    1  UNL1        0.1316
      9 N         137.3445  140.1885  161.0318 N.pl3   1  UNL1       -0.3425
     10 C         139.4183  139.3068  159.7388 C.ar    1  UNL1        0.0860
     11 H         136.4627  140.6264  161.0321 H       1  UNL1        0.1437
     12 H         137.7469  139.8915  161.8797 H       1  UNL1        0.1437
     13 C         139.3046  139.9255  167.5527 C.ar    1  UNL1        0.1386
     14 C         140.0699  141.0711  166.9598 C.ar    1  UNL1        0.0369
     15 C         140.4155  141.0668  165.5001 C.ar    1  UNL1        0.0031
     16 C         139.9957  139.9168  164.6334 C.ar    1  UNL1        0.0002
     17 C         140.3412  139.9125  163.1737 C.ar    1  UNL1        0.0016
     18 C         139.9214  138.7625  162.3070 C.ar    1  UNL1        0.0195
     19 C         139.1560  137.6168  162.8999 C.ar    1  UNL1        0.0016
     20 C         138.8104  137.6211  164.3596 C.ar    1  UNL1        0.0001
     21 C         139.2303  138.7712  165.2263 C.ar    1  UNL1        0.0030
     22 C         138.8847  138.7755  166.6860 C.ar    1  UNL1        0.0369
     23 O         138.9590  139.9298  169.0123 O.3     1  UNL1       -0.4755
     24 C         141.3156  139.5701  170.0453 C.3     1  UNL1        0.0512
     25 C         140.0009  140.2922  170.0287 C.3     1  UNL1        0.2055
     26 C         142.4924  138.0071  157.7573 C.3     1  UNL1        0.1291
     27 C         142.4256  136.6569  157.1072 C.3     1  UNL1        0.0272
     28 C         143.3508  135.5634  157.5527 C.3     1  UNL1        0.0194
     29 C         143.2840  134.2132  156.9027 C.3     1  UNL1        0.0721
     30 N         142.2922  133.9565  155.8071 N.3     1  UNL1       -0.2740
     31 C         141.3670  135.0500  155.3616 C.3     1  UNL1        0.0721
     32 C         141.4338  136.4001  156.0117 C.3     1  UNL1        0.0194
     33 C         142.2254  132.6063  155.1571 C.3     1  UNL1        0.0576
     34 C         143.4897  131.8858  154.7934 C.3     1  UNL1        0.0173
     35 C         140.8944  131.9767  154.8708 C.3     1  UNL1        0.0173
@<TRIPOS>BOND
     1    24    25    1
     2    25    23    1
     3    23    13    1
     4    13    14   ar
     5    14    15   ar
     6    15    16   ar
     7    16    17   ar
     8    17    18   ar
     9    18     1    1
    10     1     2   ar
    11     2     3   ar
    12     3    26    1
    13    26    27    1
    14    27    28    1
    15    28    29    1
    16    29    30    1
    17    30    33    1
    18    33    34    1
    19    33    35    1
    20    30    31    1
    21    31    32    1
    22     3     4   ar
    23     4     5   ar
    24     5     6   ar
    25     6     7   ar
    26     7     8   ar
    27     8     9    1
    28     8    10   ar
    29    18    19   ar
    30    19    20   ar
    31    20    21   ar
    32    21    22   ar
    33    22    13   ar
    34    21    16   ar
    35    10     1   ar
    36    32    27    1
    37    10     4   ar
    38     9    11    1
    39     9    12    1
@<TRIPOS>MOLECULE
*****
 35 39 0 0 0
SMALL
GASTEIGER

@<TRIPOS>ATOM
      1 C         140.9256  138.6442  159.9791 C.ar    1  UNL1        0.1065
      2 N         142.0878  137.8429  159.4718 N.ar    1  UNL1       -0.1679
      3 N         141.9659  137.7426  157.9801 N.ar    1  UNL1       -0.2340
      4 C         140.7284  138.4819  157.5655 C.ar    1  UNL1        0.1653
      5 N         140.1038  138.7197  156.2226 N.ar    1  UNL1       -0.2050
      6 C         138.8363  139.5148  156.1151 C.ar    1  UNL1        0.2014
      7 N         138.1934  140.0720  157.3505 N.ar    1  UNL1       -0.2093
      8 C         138.8179  139.8341  158.6934 C.ar    1  UNL1        0.1316
      9 N         138.1751  140.3913  159.9288 N.pl3   1  UNL1       -0.3425
     10 C         140.0854  139.0391  158.8009 C.ar    1  UNL1        0.0860
     11 H         137.3432  140.9131  159.8582 H       1  UNL1        0.1437
     12 H         138.5850  140.2353  160.8102 H       1  UNL1        0.1437
     13 C         138.9974  139.1104  166.5605 C.ar    1  UNL1        0.1386
     14 C         138.4387  137.8482  165.9734 C.ar    1  UNL1        0.0369
     15 C         138.7126  137.5025  164.5397 C.ar    1  UNL1        0.0031
     16 C         139.5452  138.4190  163.6931 C.ar    1  UNL1        0.0002
     17 C         139.8191  138.0734  162.2594 C.ar    1  UNL1        0.0016
     18 C         140.6517  138.9899  161.4128 C.ar    1  UNL1        0.0195
     19 C         141.2105  140.2521  161.9999 C.ar    1  UNL1        0.0016
     20 C         140.9366  140.5978  163.4336 C.ar    1  UNL1        0.0001
     21 C         140.1039  139.6812  164.2802 C.ar    1  UNL1        0.0030
     22 C         139.8301  140.0269  165.7139 C.ar    1  UNL1        0.0369
     23 O         138.7235  139.4560  167.9942 O.3     1  UNL1       -0.4755
     24 C         139.3463  141.0101  169.9808 C.3     1  UNL1        0.0512
     25 C         139.7597  140.1791  168.8025 C.3     1  UNL1        0.2055
     26 C         142.9148  137.0285  157.0640 C.3     1  UNL1        0.1291
     27 C         142.6389  135.6121  156.6544 C.3     1  UNL1        0.0272
     28 C         143.3537  134.4820  157.3340 C.3     1  UNL1        0.0194
     29 C         143.0778  133.0656  156.9245 C.3     1  UNL1        0.0721
     30 N         142.0870  132.7793  155.8353 N.3     1  UNL1       -0.2740
     31 C         141.3722  133.9094  155.1557 C.3     1  UNL1        0.0721
     32 C         141.6481  135.3258  155.5652 C.3     1  UNL1        0.0194
     33 C         141.8111  131.3629  155.4257 C.3     1  UNL1        0.0576
     34 C         140.5461  131.0270  154.6929 C.3     1  UNL1        0.0173
     35 C         142.8001  130.2825  155.7489 C.3     1  UNL1        0.0173
@<TRIPOS>BOND
     1    24    25    1
     2    25    23    1
     3    23    13    1
     4    13    14   ar
     5    14    15   ar
     6    15    16   ar
     7    16    17   ar
     8    17    18   ar
     9    18     1    1
    10     1     2   ar
    11     2     3   ar
    12     3    26    1
    13    26    27    1
    14    27    28    1
    15    28    29    1
    16    29    30    1
    17    30    33    1
    18    33    34    1
    19    33    35    1
    20    30    31    1
    21    31    32    1
    22     3     4   ar
    23     4     5   ar
    24     5     6   ar
    25     6     7   ar
    26     7     8   ar
    27     8     9    1
    28     8    10   ar
    29    18    19   ar
    30    19    20   ar
    31    20    21   ar
    32    21    22   ar
    33    22    13   ar
    34    21    16   ar
    35    10     1   ar
    36    32    27    1
    37    10     4   ar
    38     9    11    1
    39     9    12    1
@<TRIPOS>MOLECULE
*****
 35 39 0 0 0
SMALL
GASTEIGER

@<TRIPOS>ATOM
      1 C         143.1597  142.2836  161.3203 C.ar    1  UNL1        0.1065
      2 N         143.7123  141.1869  160.4590 N.ar    1  UNL1       -0.1679
      3 N         143.4841  141.5639  159.0252 N.ar    1  UNL1       -0.2340
      4 C         142.7904  142.8936  159.0003 C.ar    1  UNL1        0.1653
      5 N         142.3154  143.7569  157.8694 N.ar    1  UNL1       -0.2050
      6 C         141.6399  145.0651  158.1568 C.ar    1  UNL1        0.2014
      7 N         141.4394  145.5099  159.5753 N.ar    1  UNL1       -0.2093
      8 C         141.9144  144.6466  160.7063 C.ar    1  UNL1        0.1316
      9 N         141.7140  145.0914  162.1247 N.pl3   1  UNL1       -0.3425
     10 C         142.5899  143.3385  160.4188 C.ar    1  UNL1        0.0860
     11 H         141.2706  145.9499  162.3134 H       1  UNL1        0.1437
     12 H         142.0257  144.5248  162.8670 H       1  UNL1        0.1437
     13 C         142.0562  141.8788  168.0929 C.ar    1  UNL1        0.1386
     14 C         140.8796  141.2956  167.3680 C.ar    1  UNL1        0.0369
     15 C         140.8650  141.2600  165.8685 C.ar    1  UNL1        0.0031
     16 C         142.0270  141.8075  165.0939 C.ar    1  UNL1        0.0002
     17 C         142.0124  141.7718  163.5944 C.ar    1  UNL1        0.0016
     18 C         143.1743  142.3193  162.8198 C.ar    1  UNL1        0.0195
     19 C         144.3510  142.9025  163.5447 C.ar    1  UNL1        0.0016
     20 C         144.3656  142.9382  165.0443 C.ar    1  UNL1        0.0001
     21 C         143.2035  142.3906  165.8188 C.ar    1  UNL1        0.0030
     22 C         143.2181  142.4263  167.3183 C.ar    1  UNL1        0.0369
     23 O         142.0708  141.9145  169.5924 O.3     1  UNL1       -0.4755
     24 C         140.4484  143.9203  169.8999 C.3     1  UNL1        0.0512
     25 C         140.9499  142.5761  170.3379 C.3     1  UNL1        0.2055
     26 C         143.8800  140.7535  157.8267 C.3     1  UNL1        0.1291
     27 C         145.0940  141.1338  157.0320 C.3     1  UNL1        0.0272
     28 C         145.4266  140.3938  155.7703 C.3     1  UNL1        0.0194
     29 C         146.6406  140.7742  154.9756 C.3     1  UNL1        0.0721
     30 N         147.5220  141.8945  155.4425 N.3     1  UNL1       -0.2740
     31 C         147.1894  142.6345  156.7041 C.3     1  UNL1        0.0721
     32 C         145.9754  142.2542  157.4989 C.3     1  UNL1        0.0194
     33 C         148.7360  142.2748  154.6478 C.3     1  UNL1        0.0576
     34 C         150.0833  141.7414  155.0352 C.3     1  UNL1        0.0173
     35 C         148.6026  143.1885  153.4656 C.3     1  UNL1        0.0173
@<TRIPOS>BOND
     1    24    25    1
     2    25    23    1
     3    23    13    1
     4    13    14   ar
     5    14    15   ar
     6    15    16   ar
     7    16    17   ar
     8    17    18   ar
     9    18     1    1
    10     1     2   ar
    11     2     3   ar
    12     3    26    1
    13    26    27    1
    14    27    28    1
    15    28    29    1
    16    29    30    1
    17    30    33    1
    18    33    34    1
    19    33    35    1
    20    30    31    1
    21    31    32    1
    22     3     4   ar
    23     4     5   ar
    24     5     6   ar
    25     6     7   ar
    26     7     8   ar
    27     8     9    1
    28     8    10   ar
    29    18    19   ar
    30    19    20   ar
    31    20    21   ar
    32    21    22   ar
    33    22    13   ar
    34    21    16   ar
    35    10     1   ar
    36    32    27    1
    37    10     4   ar
    38     9    11    1
    39     9    12    1
@<TRIPOS>MOLECULE
*****
 35 39 0 0 0
SMALL
GASTEIGER

@<TRIPOS>ATOM
      1 C         143.4532  142.8533  162.0236 C.ar    1  UNL1        0.1065
      2 N         144.4322  142.1889  161.1016 N.ar    1  UNL1       -0.1679
      3 N         144.1460  142.6578  159.7058 N.ar    1  UNL1       -0.2340
      4 C         142.9900  143.6119  159.7652 C.ar    1  UNL1        0.1653
      5 N         142.2720  144.3863  158.6999 N.ar    1  UNL1       -0.2050
      6 C         141.1258  145.2816  159.0672 C.ar    1  UNL1        0.2014
      7 N         140.6976  145.4024  160.4997 N.ar    1  UNL1       -0.2093
      8 C         141.4157  144.6280  161.5650 C.ar    1  UNL1        0.1316
      9 N         140.9875  144.7487  162.9975 N.pl3   1  UNL1       -0.3425
     10 C         142.5618  143.7328  161.1977 C.ar    1  UNL1        0.0860
     11 H         140.2352  145.3363  163.2385 H       1  UNL1        0.1437
     12 H         141.4588  144.2405  163.6966 H       1  UNL1        0.1437
     13 C         142.3095  141.0259  168.5507 C.ar    1  UNL1        0.1386
     14 C         141.5389  140.1135  167.6432 C.ar    1  UNL1        0.0369
     15 C         141.6135  140.2965  166.1562 C.ar    1  UNL1        0.0031
     16 C         142.4587  141.3919  165.5769 C.ar    1  UNL1        0.0002
     17 C         142.5333  141.5749  164.0899 C.ar    1  UNL1        0.0016
     18 C         143.3785  142.6703  163.5106 C.ar    1  UNL1        0.0195
     19 C         144.1492  143.5828  164.4181 C.ar    1  UNL1        0.0016
     20 C         144.0745  143.3998  165.9051 C.ar    1  UNL1        0.0001
     21 C         143.2293  142.3043  166.4844 C.ar    1  UNL1        0.0030
     22 C         143.1547  142.1213  167.9713 C.ar    1  UNL1        0.0369
     23 O         142.2348  140.8430  170.0376 O.3     1  UNL1       -0.4755
     24 C         140.1818  142.4245  170.2215 C.3     1  UNL1        0.0512
     25 C         141.0357  141.3324  170.7943 C.3     1  UNL1        0.2055
     26 C         144.8857  142.2451  158.4679 C.3     1  UNL1        0.1291
     27 C         144.4785  141.0046  157.7294 C.3     1  UNL1        0.0272
     28 C         145.1313  140.6608  156.4234 C.3     1  UNL1        0.0194
     29 C         144.7241  139.4203  155.6850 C.3     1  UNL1        0.0721
     30 N         143.6641  138.5235  156.2525 N.3     1  UNL1       -0.2740
     31 C         143.0113  138.8673  157.5585 C.3     1  UNL1        0.0721
     32 C         143.4185  140.1078  158.2969 C.3     1  UNL1        0.0194
     33 C         143.2569  137.2830  155.5140 C.3     1  UNL1        0.0576
     34 C         144.1308  136.0647  155.5554 C.3     1  UNL1        0.0173
     35 C         141.9757  137.2609  154.7342 C.3     1  UNL1        0.0173
@<TRIPOS>BOND
     1    24    25    1
     2    25    23    1
     3    23    13    1
     4    13    14   ar
     5    14    15   ar
     6    15    16   ar
     7    16    17   ar
     8    17    18   ar
     9    18     1    1
    10     1     2   ar
    11     2     3   ar
    12     3    26    1
    13    26    27    1
    14    27    28    1
    15    28    29    1
    16    29    30    1
    17    30    33    1
    18    33    34    1
    19    33    35    1
    20    30    31    1
    21    31    32    1
    22     3     4   ar
    23     4     5   ar
    24     5     6   ar
    25     6     7   ar
    26     7     8   ar
    27     8     9    1
    28     8    10   ar
    29    18    19   ar
    30    19    20   ar
    31    20    21   ar
    32    21    22   ar
    33    22    13   ar
    34    21    16   ar
    35    10     1   ar
    36    32    27    1
    37    10     4   ar
    38     9    11    1
    39     9    12    1
@<TRIPOS>MOLECULE
*****
 35 39 0 0 0
SMALL
GASTEIGER

@<TRIPOS>ATOM
      1 C         143.5153  140.4688  161.0842 C.ar    1  UNL1        0.1065
      2 N         143.9351  141.7608  160.4482 N.ar    1  UNL1       -0.1679
      3 N         143.9772  141.5542  158.9631 N.ar    1  UNL1       -0.2340
      4 C         143.5834  140.1345  158.6812 C.ar    1  UNL1        0.1653
      5 N         143.4479  139.3659  157.4003 N.ar    1  UNL1       -0.2050
      6 C         143.0269  137.9265  157.4302 C.ar    1  UNL1        0.2014
      7 N         142.7414  137.2557  158.7411 N.ar    1  UNL1       -0.2093
      8 C         142.8769  138.0242  160.0221 C.ar    1  UNL1        0.1316
      9 N         142.5915  137.3534  161.3330 N.pl3   1  UNL1       -0.3425
     10 C         143.2979  139.4636  159.9922 C.ar    1  UNL1        0.0860
     11 H         142.3151  136.4087  161.3527 H       1  UNL1        0.1437
     12 H         142.6804  137.8579  162.1738 H       1  UNL1        0.1437
     13 C         141.5518  139.8921  167.6464 C.ar    1  UNL1        0.1386
     14 C         140.4495  140.5359  166.8588 C.ar    1  UNL1        0.0369
     15 C         140.6217  140.7799  165.3889 C.ar    1  UNL1        0.0031
     16 C         141.8963  140.3803  164.7065 C.ar    1  UNL1        0.0002
     17 C         142.0685  140.6244  163.2365 C.ar    1  UNL1        0.0016
     18 C         143.3431  140.2247  162.5542 C.ar    1  UNL1        0.0195
     19 C         144.4455  139.5809  163.3418 C.ar    1  UNL1        0.0016
     20 C         144.2733  139.3369  164.8118 C.ar    1  UNL1        0.0001
     21 C         142.9986  139.7366  165.4941 C.ar    1  UNL1        0.0030
     22 C         142.8264  139.4925  166.9641 C.ar    1  UNL1        0.0369
     23 O         141.3796  139.6481  169.1164 O.3     1  UNL1       -0.4755
     24 C         139.0615  140.4163  170.0029 C.3     1  UNL1        0.0512
     25 C         140.5503  140.5877  169.9406 C.3     1  UNL1        0.2055
     26 C         144.3480  142.5860  157.9396 C.3     1  UNL1        0.1291
     27 C         145.5442  142.3736  157.0597 C.3     1  UNL1        0.0272
     28 C         145.3835  141.7152  155.7215 C.3     1  UNL1        0.0194
     29 C         146.5796  141.5028  154.8417 C.3     1  UNL1        0.0721
     30 N         147.9364  141.9488  155.2999 N.3     1  UNL1       -0.2740
     31 C         148.0971  142.6072  156.6381 C.3     1  UNL1        0.0721
     32 C         146.9010  142.8196  157.5180 C.3     1  UNL1        0.0194
     33 C         149.1326  141.7363  154.4201 C.3     1  UNL1        0.0576
     34 C         148.9561  141.5843  152.9383 C.3     1  UNL1        0.0173
     35 C         150.5052  141.6760  155.0220 C.3     1  UNL1        0.0173
@<TRIPOS>BOND
     1    24    25    1
     2    25    23    1
     3    23    13    1
     4    13    14   ar
     5    14    15   ar
     6    15    16   ar
     7    16    17   ar
     8    17    18   ar
     9    18     1    1
    10     1     2   ar
    11     2     3   ar
    12     3    26    1
    13    26    27    1
    14    27    28    1
    15    28    29    1
    16    29    30    1
    17    30    33    1
    18    33    34    1
    19    33    35    1
    20    30    31    1
    21    31    32    1
    22     3     4   ar
    23     4     5   ar
    24     5     6   ar
    25     6     7   ar
    26     7     8   ar
    27     8     9    1
    28     8    10   ar
    29    18    19   ar
    30    19    20   ar
    31    20    21   ar
    32    21    22   ar
    33    22    13   ar
    34    21    16   ar
    35    10     1   ar
    36    32    27    1
    37    10     4   ar
    38     9    11    1
    39     9    12    1
@<TRIPOS>MOLECULE
*****
 35 39 0 0 0
SMALL
GASTEIGER

@<TRIPOS>ATOM
      1 C         141.1921  141.8007  161.8931 C.ar    1  UNL1        0.1065
      2 N         140.5311  140.6111  161.2623 N.ar    1  UNL1       -0.1679
      3 N         140.2564  140.9412  159.8251 N.ar    1  UNL1       -0.2340
      4 C         140.7477  142.3349  159.5676 C.ar    1  UNL1        0.1653
      5 N         140.7432  143.1889  158.3345 N.ar    1  UNL1       -0.2050
      6 C         141.3170  144.5742  158.3794 C.ar    1  UNL1        0.2014
      7 N         141.8953  145.1054  159.6575 N.ar    1  UNL1       -0.2093
      8 C         141.8998  144.2513  160.8906 C.ar    1  UNL1        0.1316
      9 N         142.4781  144.7825  162.1687 N.pl3   1  UNL1       -0.3425
     10 C         141.3260  142.8662  160.8457 C.ar    1  UNL1        0.0860
     11 H         142.8547  145.6916  162.1982 H       1  UNL1        0.1437
     12 H         142.4810  144.2219  162.9781 H       1  UNL1        0.1437
     13 C         142.0223  142.6750  168.6604 C.ar    1  UNL1        0.1386
     14 C         140.6105  143.0209  168.2901 C.ar    1  UNL1        0.0369
     15 C         140.1621  142.9152  166.8626 C.ar    1  UNL1        0.0031
     16 C         141.1255  142.4636  165.8054 C.ar    1  UNL1        0.0002
     17 C         140.6771  142.3580  164.3778 C.ar    1  UNL1        0.0016
     18 C         141.6405  141.9064  163.3206 C.ar    1  UNL1        0.0195
     19 C         143.0524  141.5604  163.6908 C.ar    1  UNL1        0.0016
     20 C         143.5008  141.6661  165.1183 C.ar    1  UNL1        0.0001
     21 C         142.5373  142.1177  166.1756 C.ar    1  UNL1        0.0030
     22 C         142.9857  142.2234  167.6031 C.ar    1  UNL1        0.0369
     23 O         142.4707  142.7806  170.0879 O.3     1  UNL1       -0.4755
     24 C         141.5804  140.4029  170.6390 C.3     1  UNL1        0.0512
     25 C         142.0182  141.7637  171.0934 C.3     1  UNL1        0.2055
     26 C         139.6049  140.0366  158.8216 C.3     1  UNL1        0.1291
     27 C         140.4068  138.9626  158.1482 C.3     1  UNL1        0.0272
     28 C         139.7866  138.1315  157.0644 C.3     1  UNL1        0.0194
     29 C         140.5885  137.0574  156.3911 C.3     1  UNL1        0.0721
     30 N         142.0106  136.8144  156.8015 N.3     1  UNL1       -0.2740
     31 C         142.6308  137.6455  157.8853 C.3     1  UNL1        0.0721
     32 C         141.8289  138.7196  158.5586 C.3     1  UNL1        0.0194
     33 C         142.8125  135.7403  156.1282 C.3     1  UNL1        0.0576
     34 C         144.1331  136.0730  155.4997 C.3     1  UNL1        0.0173
     35 C         142.2936  134.3337  156.0834 C.3     1  UNL1        0.0173
@<TRIPOS>BOND
     1    24    25    1
     2    25    23    1
     3    23    13    1
     4    13    14   ar
     5    14    15   ar
     6    15    16   ar
     7    16    17   ar
     8    17    18   ar
     9    18     1    1
    10     1     2   ar
    11     2     3   ar
    12     3    26    1
    13    26    27    1
    14    27    28    1
    15    28    29    1
    16    29    30    1
    17    30    33    1
    18    33    34    1
    19    33    35    1
    20    30    31    1
    21    31    32    1
    22     3     4   ar
    23     4     5   ar
    24     5     6   ar
    25     6     7   ar
    26     7     8   ar
    27     8     9    1
    28     8    10   ar
    29    18    19   ar
    30    19    20   ar
    31    20    21   ar
    32    21    22   ar
    33    22    13   ar
    34    21    16   ar
    35    10     1   ar
    36    32    27    1
    37    10     4   ar
    38     9    11    1
    39     9    12    1
@<TRIPOS>MOLECULE
*****
 35 39 0 0 0
SMALL
GASTEIGER

@<TRIPOS>ATOM
      1 C         141.7722  137.0500  156.5947 C.ar    1  UNL1        0.1065
      2 N         140.4830  137.3416  157.3040 N.ar    1  UNL1       -0.1679
      3 N         140.4543  138.8054  157.6304 N.ar    1  UNL1       -0.2340
      4 C         141.7256  139.4185  157.1227 C.ar    1  UNL1        0.1653
      5 N         142.2469  140.8245  157.1606 N.ar    1  UNL1       -0.2050
      6 C         143.5827  141.1457  156.5583 C.ar    1  UNL1        0.2014
      7 N         144.3972  140.0608  155.9183 N.ar    1  UNL1       -0.2093
      8 C         143.8759  138.6548  155.8804 C.ar    1  UNL1        0.1316
      9 N         144.6904  137.5699  155.2404 N.pl3   1  UNL1       -0.3425
     10 C         142.5402  138.3337  156.4826 C.ar    1  UNL1        0.0860
     11 H         145.5671  137.7807  154.8451 H       1  UNL1        0.1437
     12 H         144.3483  136.6471  155.2155 H       1  UNL1        0.1437
     13 C         144.4816  130.8505  155.3800 C.ar    1  UNL1        0.1386
     14 C         144.9744  131.3506  156.7055 C.ar    1  UNL1        0.0369
     15 C         144.5310  132.6905  157.2135 C.ar    1  UNL1        0.0031
     16 C         143.5949  133.5304  156.3961 C.ar    1  UNL1        0.0002
     17 C         143.1516  134.8703  156.9041 C.ar    1  UNL1        0.0016
     18 C         142.2155  135.7101  156.0867 C.ar    1  UNL1        0.0195
     19 C         141.7227  135.2101  154.7610 C.ar    1  UNL1        0.0016
     20 C         142.1660  133.8702  154.2530 C.ar    1  UNL1        0.0001
     21 C         143.1021  133.0303  155.0705 C.ar    1  UNL1        0.0030
     22 C         143.5455  131.6904  154.5625 C.ar    1  UNL1        0.0369
     23 O         144.9249  129.5106  154.8719 O.3     1  UNL1       -0.4755
     24 C         145.6225  128.1053  152.8010 C.3     1  UNL1        0.0512
     25 C         144.7641  129.1682  153.4204 C.3     1  UNL1        0.2055
     26 C         139.3484  139.5290  158.3397 C.3     1  UNL1        0.1291
     27 C         139.1835  139.3776  159.8230 C.3     1  UNL1        0.0272
     28 C         137.9198  139.8368  160.4879 C.3     1  UNL1        0.0194
     29 C         137.7550  139.6854  161.9711 C.3     1  UNL1        0.0721
     30 N         138.8539  139.0747  162.7894 N.3     1  UNL1       -0.2740
     31 C         140.1176  138.6155  162.1245 C.3     1  UNL1        0.0721
     32 C         140.2824  138.7669  160.6412 C.3     1  UNL1        0.0194
     33 C         138.6890  138.9233  164.2726 C.3     1  UNL1        0.0576
     34 C         138.2196  140.0848  165.0975 C.3     1  UNL1        0.0173
     35 C         138.9937  137.6104  164.9310 C.3     1  UNL1        0.0173
@<TRIPOS>BOND
     1    24    25    1
     2    25    23    1
     3    23    13    1
     4    13    14   ar
     5    14    15   ar
     6    15    16   ar
     7    16    17   ar
     8    17    18   ar
     9    18     1    1
    10     1     2   ar
    11     2     3   ar
    12     3    26    1
    13    26    27    1
    14    27    28    1
    15    28    29    1
    16    29    30    1
    17    30    33    1
    18    33    34    1
    19    33    35    1
    20    30    31    1
    21    31    32    1
    22     3     4   ar
    23     4     5   ar
    24     5     6   ar
    25     6     7   ar
    26     7     8   ar
    27     8     9    1
    28     8    10   ar
    29    18    19   ar
    30    19    20   ar
    31    20    21   ar
    32    21    22   ar
    33    22    13   ar
    34    21    16   ar
    35    10     1   ar
    36    32    27    1
    37    10     4   ar
    38     9    11    1
    39     9    12    1
@<TRIPOS>MOLECULE
*****
 35 39 0 0 0
SMALL
GASTEIGER

@<TRIPOS>ATOM
      1 C         142.5131  138.9409  161.5777 C.ar    1  UNL1        0.1065
      2 N         142.3055  138.1829  162.8553 N.ar    1  UNL1       -0.1679
      3 N         143.1244  138.8434  163.9245 N.ar    1  UNL1       -0.2340
      4 C         143.8382  140.0096  163.3076 C.ar    1  UNL1        0.1653
      5 N         144.7834  141.0245  163.8792 N.ar    1  UNL1       -0.2050
      6 C         145.3507  142.0996  163.0003 C.ar    1  UNL1        0.2014
      7 N         144.9729  142.1599  161.5500 N.ar    1  UNL1       -0.2093
      8 C         144.0277  141.1450  160.9784 C.ar    1  UNL1        0.1316
      9 N         143.6498  141.2053  159.5280 N.pl3   1  UNL1       -0.3425
     10 C         143.4604  140.0699  161.8572 C.ar    1  UNL1        0.0860
     11 H         144.0222  141.9109  158.9512 H       1  UNL1        0.1437
     12 H         143.0295  140.5392  159.1528 H       1  UNL1        0.1437
     13 C         140.7737  136.9272  155.2397 C.ar    1  UNL1        0.1386
     14 C         142.1803  136.4912  155.5248 C.ar    1  UNL1        0.0369
     15 C         142.8095  136.8067  156.8494 C.ar    1  UNL1        0.0031
     16 C         142.0321  137.5583  157.8889 C.ar    1  UNL1        0.0002
     17 C         142.6613  137.8738  159.2135 C.ar    1  UNL1        0.0016
     18 C         141.8839  138.6254  160.2531 C.ar    1  UNL1        0.0195
     19 C         140.4772  139.0614  159.9681 C.ar    1  UNL1        0.0016
     20 C         139.8480  138.7459  158.6435 C.ar    1  UNL1        0.0001
     21 C         140.6255  137.9943  157.6039 C.ar    1  UNL1        0.0030
     22 C         139.9963  137.6787  156.2793 C.ar    1  UNL1        0.0369
     23 O         140.1445  136.6116  153.9152 O.3     1  UNL1       -0.4755
     24 C         138.0457  136.6974  152.3862 C.3     1  UNL1        0.0512
     25 C         138.8397  137.2460  153.5345 C.3     1  UNL1        0.2055
     26 C         143.2140  138.4133  165.3586 C.3     1  UNL1        0.1291
     27 C         142.3456  139.0661  166.3930 C.3     1  UNL1        0.0272
     28 C         142.8265  139.1858  167.8087 C.3     1  UNL1        0.0194
     29 C         141.9581  139.8386  168.8431 C.3     1  UNL1        0.0721
     30 N         140.6089  140.3716  168.4617 N.3     1  UNL1       -0.2740
     31 C         140.1281  140.2519  167.0459 C.3     1  UNL1        0.0721
     32 C         140.9964  139.5991  166.0115 C.3     1  UNL1        0.0194
     33 C         139.7406  141.0244  169.4960 C.3     1  UNL1        0.0576
     34 C         140.0346  142.4244  169.9469 C.3     1  UNL1        0.0173
     35 C         138.5782  140.2771  170.0795 C.3     1  UNL1        0.0173
@<TRIPOS>BOND
     1    24    25    1
     2    25    23    1
     3    23    13    1
     4    13    14   ar
     5    14    15   ar
     6    15    16   ar
     7    16    17   ar
     8    17    18   ar
     9    18     1    1
    10     1     2   ar
    11     2     3   ar
    12     3    26    1
    13    26    27    1
    14    27    28    1
    15    28    29    1
    16    29    30    1
    17    30    33    1
    18    33    34    1
    19    33    35    1
    20    30    31    1
    21    31    32    1
    22     3     4   ar
    23     4     5   ar
    24     5     6   ar
    25     6     7   ar
    26     7     8   ar
    27     8     9    1
    28     8    10   ar
    29    18    19   ar
    30    19    20   ar
    31    20    21   ar
    32    21    22   ar
    33    22    13   ar
    34    21    16   ar
    35    10     1   ar
    36    32    27    1
    37    10     4   ar
    38     9    11    1
    39     9    12    1
@<TRIPOS>MOLECULE
*****
 35 39 0 0 0
SMALL
GASTEIGER

@<TRIPOS>ATOM
      1 C         141.4584  141.6703  163.7361 C.ar    1  UNL1        0.1065
      2 N         142.6906  141.0744  163.1225 N.ar    1  UNL1       -0.1679
      3 N         142.8255  141.6187  161.7313 N.ar    1  UNL1       -0.2340
      4 C         141.6765  142.5510  161.4850 C.ar    1  UNL1        0.1653
      5 N         141.2905  143.3751  160.2925 N.ar    1  UNL1       -0.2050
      6 C         140.0595  144.2311  160.3391 C.ar    1  UNL1        0.2014
      7 N         139.2147  144.2630  161.5781 N.ar    1  UNL1       -0.2093
      8 C         139.6007  143.4389  162.7705 C.ar    1  UNL1        0.1316
      9 N         138.7558  143.4709  164.0096 N.pl3   1  UNL1       -0.3425
     10 C         140.8316  142.5830  162.7240 C.ar    1  UNL1        0.0860
     11 H         137.9479  144.0327  164.0401 H       1  UNL1        0.1437
     12 H         139.0092  142.9300  164.7922 H       1  UNL1        0.1437
     13 C         138.3125  139.5796  169.4791 C.ar    1  UNL1        0.1386
     14 C         137.7420  138.8358  168.3081 C.ar    1  UNL1        0.0369
     15 C         138.2570  139.1052  166.9253 C.ar    1  UNL1        0.0031
     16 C         139.3426  140.1184  166.7135 C.ar    1  UNL1        0.0002
     17 C         139.8577  140.3878  165.3307 C.ar    1  UNL1        0.0016
     18 C         140.9433  141.4009  165.1189 C.ar    1  UNL1        0.0195
     19 C         141.5139  142.1448  166.2899 C.ar    1  UNL1        0.0016
     20 C         140.9988  141.8754  167.6727 C.ar    1  UNL1        0.0001
     21 C         139.9131  140.8622  167.8845 C.ar    1  UNL1        0.0030
     22 C         139.3981  140.5928  169.2673 C.ar    1  UNL1        0.0369
     23 O         137.7974  139.3103  170.8619 O.3     1  UNL1       -0.4755
     24 C         136.1150  137.7502  172.0808 C.3     1  UNL1        0.0512
     25 C         136.3972  138.8088  171.0562 C.3     1  UNL1        0.2055
     26 C         143.9174  141.2886  160.7574 C.3     1  UNL1        0.1291
     27 C         143.6618  140.3142  159.6459 C.3     1  UNL1        0.0272
     28 C         143.0558  138.9755  159.9467 C.3     1  UNL1        0.0194
     29 C         142.8001  138.0011  158.8352 C.3     1  UNL1        0.0721
     30 N         143.1505  138.3655  157.4230 N.3     1  UNL1       -0.2740
     31 C         143.7565  139.7043  157.1222 C.3     1  UNL1        0.0721
     32 C         144.0121  140.6786  158.2337 C.3     1  UNL1        0.0194
     33 C         142.8948  137.3912  156.3115 C.3     1  UNL1        0.0576
     34 C         143.6974  137.4689  155.0468 C.3     1  UNL1        0.0173
     35 C         141.8366  136.3392  156.4649 C.3     1  UNL1        0.0173
@<TRIPOS>BOND
     1    24    25    1
     2    25    23    1
     3    23    13    1
     4    13    14   ar
     5    14    15   ar
     6    15    16   ar
     7    16    17   ar
     8    17    18   ar
     9    18     1    1
    10     1     2   ar
    11     2     3   ar
    12     3    26    1
    13    26    27    1
    14    27    28    1
    15    28    29    1
    16    29    30    1
    17    30    33    1
    18    33    34    1
    19    33    35    1
    20    30    31    1
    21    31    32    1
    22     3     4   ar
    23     4     5   ar
    24     5     6   ar
    25     6     7   ar
    26     7     8   ar
    27     8     9    1
    28     8    10   ar
    29    18    19   ar
    30    19    20   ar
    31    20    21   ar
    32    21    22   ar
    33    22    13   ar
    34    21    16   ar
    35    10     1   ar
    36    32    27    1
    37    10     4   ar
    38     9    11    1
    39     9    12    1
