@<TRIPOS>MOLECULE
*****
 28 31 0 0 0
SMALL
GASTEIGER

@<TRIPOS>ATOM
      1 C         139.6382  143.0076  161.7743 C.3     1  UNL1        0.0035
      2 C         138.3260  143.0467  162.5001 C.3     1  UNL1        0.0215
      3 C         138.1734  142.3364  163.8124 C.3     1  UNL1        0.0922
      4 N         139.3328  141.5870  164.3989 N.pl3   1  UNL1       -0.2932
      5 C         140.6449  141.5479  163.6731 C.3     1  UNL1        0.0922
      6 C         140.7976  142.2582  162.3609 C.3     1  UNL1        0.0215
      7 C         139.1801  140.8766  165.7112 C.ar    1  UNL1        0.1352
      8 C         139.9529  141.3413  166.9099 C.ar    1  UNL1        0.0640
      9 C         139.8002  140.6310  168.2222 C.ar    1  UNL1        0.1532
     10 N         138.8747  139.4560  168.3358 N.ar    1  UNL1       -0.2203
     11 C         138.1020  138.9913  167.1371 C.ar    1  UNL1        0.1417
     12 C         137.1765  137.8163  167.2507 C.3     1  UNL1        0.0737
     13 N         138.2547  139.7017  165.8248 N.ar    1  UNL1       -0.2160
     14 C         140.5730  141.0957  169.4209 C.1     1  UNL1        0.1199
     15 N         141.3458  141.5604  170.6196 N.1     1  UNL1       -0.1893
     16 N         140.0962  145.1386  157.8374 N.pl3   1  UNL1       -0.2920
     17 C         140.5031  145.8194  159.1106 C.3     1  UNL1        0.0922
     18 C         140.3504  145.1091  160.4229 C.3     1  UNL1        0.0215
     19 C         139.7908  143.7180  160.4620 C.3     1  UNL1        0.0035
     20 C         139.3840  143.0371  159.1889 C.3     1  UNL1        0.0215
     21 C         139.5367  143.7475  157.8766 C.3     1  UNL1        0.0922
     22 C         140.7070  147.9799  152.5882 C.3     1  UNL1        0.0538
     23 C         140.5543  147.2696  153.9005 C.ar    1  UNL1        0.0786
     24 C         139.5887  147.7867  154.9253 C.ar    1  UNL1        0.1150
     25 N         139.4360  147.0763  156.2376 N.ar    1  UNL1       -0.2263
     26 C         140.2489  145.8489  156.5251 C.ar    1  UNL1        0.1511
     27 C         141.2145  145.3319  155.5003 C.ar    1  UNL1        0.1326
     28 N         141.3672  146.0422  154.1880 N.ar    1  UNL1       -0.2437
@<TRIPOS>BOND
     1    22    23    1
     2    23    24   ar
     3    24    25   ar
     4    25    26   ar
     5    26    16    1
     6    16    17    1
     7    17    18    1
     8    18    19    1
     9    19     1    1
    10     1     2    1
    11     2     3    1
    12     3     4    1
    13     4     7    1
    14     7     8   ar
    15     8     9   ar
    16     9    14    1
    17    14    15    3
    18     9    10   ar
    19    10    11   ar
    20    11    12    1
    21    11    13   ar
    22     4     5    1
    23     5     6    1
    24    19    20    1
    25    20    21    1
    26    26    27   ar
    27    27    28   ar
    28    28    23   ar
    29    21    16    1
    30     6     1    1
    31    13     7   ar
@<TRIPOS>MOLECULE
*****
 28 31 0 0 0
SMALL
GASTEIGER

@<TRIPOS>ATOM
      1 C         141.4606  143.6354  162.7257 C.3     1  UNL1        0.0035
      2 C         140.2021  143.5837  163.5403 C.3     1  UNL1        0.0215
      3 C         140.2543  143.1462  164.9741 C.3     1  UNL1        0.0922
      4 N         141.5649  142.7604  165.5933 N.pl3   1  UNL1       -0.2932
      5 C         142.8233  142.8121  164.7787 C.3     1  UNL1        0.0922
      6 C         142.7712  143.2496  163.3449 C.3     1  UNL1        0.0215
      7 C         141.6170  142.3229  167.0272 C.ar    1  UNL1        0.1352
      8 C         140.4256  141.6607  167.6530 C.ar    1  UNL1        0.0640
      9 C         140.4777  141.2232  169.0869 C.ar    1  UNL1        0.1532
     10 N         141.7214  141.4479  169.8948 N.ar    1  UNL1       -0.2203
     11 C         142.9128  142.1101  169.2689 C.ar    1  UNL1        0.1417
     12 C         144.1566  142.3348  170.0769 C.3     1  UNL1        0.0737
     13 N         142.8607  142.5476  167.8351 N.ar    1  UNL1       -0.2160
     14 C         139.2861  140.5610  169.7128 C.1     1  UNL1        0.1199
     15 N         138.0946  139.8987  170.3386 N.1     1  UNL1       -0.1893
     16 N         141.3041  144.9480  158.4242 N.pl3   1  UNL1       -0.2920
     17 C         140.3446  145.5279  159.4207 C.3     1  UNL1        0.0922
     18 C         140.3968  145.0904  160.8545 C.3     1  UNL1        0.0215
     19 C         141.4084  144.0730  161.2918 C.3     1  UNL1        0.0035
     20 C         142.3679  143.4930  160.2954 C.3     1  UNL1        0.0215
     21 C         142.3158  143.9305  158.8615 C.3     1  UNL1        0.0922
     22 C         141.0955  146.6980  152.6889 C.3     1  UNL1        0.0538
     23 C         141.1476  146.2605  154.1227 C.ar    1  UNL1        0.0786
     24 C         140.1541  146.8005  155.1082 C.ar    1  UNL1        0.1150
     25 N         140.2063  146.3630  156.5420 N.ar    1  UNL1       -0.2263
     26 C         141.2519  145.3855  156.9904 C.ar    1  UNL1        0.1511
     27 C         142.2455  144.8455  156.0048 C.ar    1  UNL1        0.1326
     28 N         142.1933  145.2830  154.5710 N.ar    1  UNL1       -0.2437
@<TRIPOS>BOND
     1    22    23    1
     2    23    24   ar
     3    24    25   ar
     4    25    26   ar
     5    26    16    1
     6    16    17    1
     7    17    18    1
     8    18    19    1
     9    19     1    1
    10     1     2    1
    11     2     3    1
    12     3     4    1
    13     4     7    1
    14     7     8   ar
    15     8     9   ar
    16     9    14    1
    17    14    15    3
    18     9    10   ar
    19    10    11   ar
    20    11    12    1
    21    11    13   ar
    22     4     5    1
    23     5     6    1
    24    19    20    1
    25    20    21    1
    26    26    27   ar
    27    27    28   ar
    28    28    23   ar
    29    21    16    1
    30     6     1    1
    31    13     7   ar
@<TRIPOS>MOLECULE
*****
 28 31 0 0 0
SMALL
GASTEIGER

@<TRIPOS>ATOM
      1 C         141.4503  143.6138  162.6897 C.3     1  UNL1        0.0035
      2 C         142.5040  142.6466  163.1415 C.3     1  UNL1        0.0215
      3 C         142.5548  142.2085  164.5752 C.3     1  UNL1        0.0922
      4 N         141.5519  142.7376  165.5571 N.pl3   1  UNL1       -0.2932
      5 C         140.4982  143.7048  165.1053 C.3     1  UNL1        0.0922
      6 C         140.4474  144.1429  163.6716 C.3     1  UNL1        0.0215
      7 C         141.6027  142.2995  166.9908 C.ar    1  UNL1        0.1352
      8 C         140.4113  141.6355  167.6148 C.ar    1  UNL1        0.0640
      9 C         140.4621  141.1974  169.0485 C.ar    1  UNL1        0.1532
     10 N         141.7043  141.4234  169.8582 N.ar    1  UNL1       -0.2203
     11 C         142.8958  142.0874  169.2342 C.ar    1  UNL1        0.1417
     12 C         144.1382  142.3133  170.0439 C.3     1  UNL1        0.0737
     13 N         142.8450  142.5255  167.8005 N.ar    1  UNL1       -0.2160
     14 C         139.2705  140.5334  169.6725 C.1     1  UNL1        0.1199
     15 N         138.0790  139.8694  170.2965 N.1     1  UNL1       -0.1893
     16 N         141.2979  144.9281  158.3886 N.pl3   1  UNL1       -0.2920
     17 C         142.3326  143.9376  158.8340 C.3     1  UNL1        0.0922
     18 C         142.3834  143.4996  160.2677 C.3     1  UNL1        0.0215
     19 C         141.3995  144.0519  161.2560 C.3     1  UNL1        0.0035
     20 C         140.3648  145.0423  160.8106 C.3     1  UNL1        0.0215
     21 C         140.3140  145.4804  159.3769 C.3     1  UNL1        0.0922
     22 C         141.0947  146.6804  152.6538 C.3     1  UNL1        0.0538
     23 C         141.1455  146.2423  154.0875 C.ar    1  UNL1        0.0786
     24 C         140.1333  146.7597  155.0661 C.ar    1  UNL1        0.1150
     25 N         140.1841  146.3216  156.4998 N.ar    1  UNL1       -0.2263
     26 C         141.2471  145.3662  156.9549 C.ar    1  UNL1        0.1511
     27 C         142.2592  144.8488  155.9762 C.ar    1  UNL1        0.1326
     28 N         142.2084  145.2869  154.5425 N.ar    1  UNL1       -0.2437
@<TRIPOS>BOND
     1    22    23    1
     2    23    24   ar
     3    24    25   ar
     4    25    26   ar
     5    26    16    1
     6    16    17    1
     7    17    18    1
     8    18    19    1
     9    19     1    1
    10     1     2    1
    11     2     3    1
    12     3     4    1
    13     4     7    1
    14     7     8   ar
    15     8     9   ar
    16     9    14    1
    17    14    15    3
    18     9    10   ar
    19    10    11   ar
    20    11    12    1
    21    11    13   ar
    22     4     5    1
    23     5     6    1
    24    19    20    1
    25    20    21    1
    26    26    27   ar
    27    27    28   ar
    28    28    23   ar
    29    21    16    1
    30     6     1    1
    31    13     7   ar
@<TRIPOS>MOLECULE
*****
 28 31 0 0 0
SMALL
GASTEIGER

@<TRIPOS>ATOM
      1 C         143.3389  141.0646  162.6357 C.3     1  UNL1        0.0035
      2 C         144.0685  141.9849  163.5687 C.3     1  UNL1        0.0215
      3 C         143.7242  142.0004  165.0285 C.3     1  UNL1        0.0922
      4 N         142.6501  141.0956  165.5554 N.pl3   1  UNL1       -0.2932
      5 C         141.9204  140.1752  164.6224 C.3     1  UNL1        0.0922
      6 C         142.2648  140.1597  163.1626 C.3     1  UNL1        0.0215
      7 C         142.3057  141.1111  167.0152 C.ar    1  UNL1        0.1352
      8 C         141.6585  142.3214  167.6203 C.ar    1  UNL1        0.0640
      9 C         141.3141  142.3369  169.0802 C.ar    1  UNL1        0.1532
     10 N         141.6170  141.1421  169.9349 N.ar    1  UNL1       -0.2203
     11 C         142.2642  139.9318  169.3299 C.ar    1  UNL1        0.1417
     12 C         142.5671  138.7369  170.1846 C.3     1  UNL1        0.0737
     13 N         142.6086  139.9163  167.8700 N.ar    1  UNL1       -0.2160
     14 C         140.6668  143.5474  169.6852 C.1     1  UNL1        0.1199
     15 N         140.0197  144.7577  170.2903 N.1     1  UNL1       -0.1893
     16 N         144.3720  141.0180  158.2561 N.pl3   1  UNL1       -0.2920
     17 C         143.8277  139.7834  158.9115 C.3     1  UNL1        0.0922
     18 C         143.4833  139.7990  160.3713 C.3     1  UNL1        0.0215
     19 C         143.6832  141.0490  161.1758 C.3     1  UNL1        0.0035
     20 C         144.2276  142.2836  160.5205 C.3     1  UNL1        0.0215
     21 C         144.5719  142.2681  159.0606 C.3     1  UNL1        0.0922
     22 C         145.7495  140.9559  152.4167 C.3     1  UNL1        0.0538
     23 C         145.4051  140.9714  153.8766 C.ar    1  UNL1        0.0786
     24 C         145.2296  139.6803  154.6195 C.ar    1  UNL1        0.1150
     25 N         144.8852  139.6958  156.0794 N.ar    1  UNL1       -0.2263
     26 C         144.7164  141.0025  156.7963 C.ar    1  UNL1        0.1511
     27 C         144.8919  142.2937  156.0533 C.ar    1  UNL1        0.1326
     28 N         145.2363  142.2781  154.5935 N.ar    1  UNL1       -0.2437
@<TRIPOS>BOND
     1    22    23    1
     2    23    24   ar
     3    24    25   ar
     4    25    26   ar
     5    26    16    1
     6    16    17    1
     7    17    18    1
     8    18    19    1
     9    19     1    1
    10     1     2    1
    11     2     3    1
    12     3     4    1
    13     4     7    1
    14     7     8   ar
    15     8     9   ar
    16     9    14    1
    17    14    15    3
    18     9    10   ar
    19    10    11   ar
    20    11    12    1
    21    11    13   ar
    22     4     5    1
    23     5     6    1
    24    19    20    1
    25    20    21    1
    26    26    27   ar
    27    27    28   ar
    28    28    23   ar
    29    21    16    1
    30     6     1    1
    31    13     7   ar
@<TRIPOS>MOLECULE
*****
 28 31 0 0 0
SMALL
GASTEIGER

@<TRIPOS>ATOM
      1 C         141.3943  139.1161  162.4186 C.3     1  UNL1        0.0035
      2 C         141.2859  140.5691  162.7749 C.3     1  UNL1        0.0215
      3 C         141.2484  140.9874  164.2149 C.3     1  UNL1        0.0922
      4 N         141.3193  139.9527  165.2986 N.pl3   1  UNL1       -0.2932
      5 C         141.4277  138.4998  164.9423 C.3     1  UNL1        0.0922
      6 C         141.4652  138.0814  163.5023 C.3     1  UNL1        0.0215
      7 C         141.2817  140.3711  166.7386 C.ar    1  UNL1        0.1352
      8 C         140.0870  140.0429  167.5841 C.ar    1  UNL1        0.0640
      9 C         140.0495  140.4612  169.0241 C.ar    1  UNL1        0.1532
     10 N         141.2067  141.2077  169.6186 N.ar    1  UNL1       -0.2203
     11 C         142.4014  141.5360  168.7731 C.ar    1  UNL1        0.1417
     12 C         143.5587  142.2825  169.3676 C.3     1  UNL1        0.0737
     13 N         142.4389  141.1176  167.3331 N.ar    1  UNL1       -0.2160
     14 C         138.8547  140.1329  169.8696 C.1     1  UNL1        0.1199
     15 N         137.6600  139.8047  170.7150 N.1     1  UNL1       -0.1893
     16 N         141.5068  137.8611  158.0986 N.pl3   1  UNL1       -0.2920
     17 C         140.2399  138.4058  158.6886 C.3     1  UNL1        0.0922
     18 C         140.2024  138.8241  160.1286 C.3     1  UNL1        0.0215
     19 C         141.4318  138.6978  160.9786 C.3     1  UNL1        0.0035
     20 C         142.6987  138.1531  160.3886 C.3     1  UNL1        0.0215
     21 C         142.7362  137.7347  158.9486 C.3     1  UNL1        0.0922
     22 C         141.6568  136.1878  152.3386 C.3     1  UNL1        0.0538
     23 C         141.6193  136.6061  153.7786 C.ar    1  UNL1        0.0786
     24 C         140.3210  136.5937  154.5297 C.ar    1  UNL1        0.1150
     25 N         140.2835  137.0120  155.9697 N.ar    1  UNL1       -0.2263
     26 C         141.5443  137.4428  156.6586 C.ar    1  UNL1        0.1511
     27 C         142.8426  137.4552  155.9076 C.ar    1  UNL1        0.1326
     28 N         142.8801  137.0369  154.4676 N.ar    1  UNL1       -0.2437
@<TRIPOS>BOND
     1    22    23    1
     2    23    24   ar
     3    24    25   ar
     4    25    26   ar
     5    26    16    1
     6    16    17    1
     7    17    18    1
     8    18    19    1
     9    19     1    1
    10     1     2    1
    11     2     3    1
    12     3     4    1
    13     4     7    1
    14     7     8   ar
    15     8     9   ar
    16     9    14    1
    17    14    15    3
    18     9    10   ar
    19    10    11   ar
    20    11    12    1
    21    11    13   ar
    22     4     5    1
    23     5     6    1
    24    19    20    1
    25    20    21    1
    26    26    27   ar
    27    27    28   ar
    28    28    23   ar
    29    21    16    1
    30     6     1    1
    31    13     7   ar
@<TRIPOS>MOLECULE
*****
 28 31 0 0 0
SMALL
GASTEIGER

@<TRIPOS>ATOM
      1 C         141.1287  143.3851  163.2717 C.3     1  UNL1        0.0035
      2 C         140.0422  143.8504  164.1953 C.3     1  UNL1        0.0215
      3 C         140.0259  143.3939  165.6240 C.3     1  UNL1        0.0922
      4 N         141.0960  142.4722  166.1292 N.pl3   1  UNL1       -0.2932
      5 C         142.1825  142.0070  165.2056 C.3     1  UNL1        0.0922
      6 C         142.1988  142.4634  163.7769 C.3     1  UNL1        0.0215
      7 C         141.0797  142.0158  167.5580 C.ar    1  UNL1        0.1352
      8 C         141.8144  140.7701  167.9559 C.ar    1  UNL1        0.0640
      9 C         141.7980  140.3137  169.3846 C.ar    1  UNL1        0.1532
     10 N         141.0469  141.1029  170.4156 N.ar    1  UNL1       -0.2203
     11 C         140.3122  142.3486  170.0177 C.ar    1  UNL1        0.1417
     12 C         139.5610  143.1380  171.0487 C.3     1  UNL1        0.0737
     13 N         140.3285  142.8051  168.5889 N.ar    1  UNL1       -0.2160
     14 C         142.5329  139.0679  169.7825 C.1     1  UNL1        0.1199
     15 N         143.2676  137.8222  170.1802 N.1     1  UNL1       -0.1893
     16 N         141.1778  144.7544  158.9853 N.pl3   1  UNL1       -0.2920
     17 C         142.0129  143.5822  159.4078 C.3     1  UNL1        0.0922
     18 C         141.9965  143.1258  160.8366 C.3     1  UNL1        0.0215
     19 C         141.1451  143.8415  161.8429 C.3     1  UNL1        0.0035
     20 C         140.3100  145.0137  161.4204 C.3     1  UNL1        0.0215
     21 C         140.3263  145.4701  159.9916 C.3     1  UNL1        0.0922
     22 C         141.2432  146.5801  153.2702 C.3     1  UNL1        0.0538
     23 C         141.2268  146.1237  154.6990 C.ar    1  UNL1        0.0786
     24 C         140.1740  146.6343  155.6375 C.ar    1  UNL1        0.1150
     25 N         140.1577  146.1779  157.0663 N.ar    1  UNL1       -0.2263
     26 C         141.1941  145.2108  157.5566 C.ar    1  UNL1        0.1511
     27 C         142.2469  144.7001  156.6181 C.ar    1  UNL1        0.1326
     28 N         142.2633  145.1566  155.1893 N.ar    1  UNL1       -0.2437
@<TRIPOS>BOND
     1    22    23    1
     2    23    24   ar
     3    24    25   ar
     4    25    26   ar
     5    26    16    1
     6    16    17    1
     7    17    18    1
     8    18    19    1
     9    19     1    1
    10     1     2    1
    11     2     3    1
    12     3     4    1
    13     4     7    1
    14     7     8   ar
    15     8     9   ar
    16     9    14    1
    17    14    15    3
    18     9    10   ar
    19    10    11   ar
    20    11    12    1
    21    11    13   ar
    22     4     5    1
    23     5     6    1
    24    19    20    1
    25    20    21    1
    26    26    27   ar
    27    27    28   ar
    28    28    23   ar
    29    21    16    1
    30     6     1    1
    31    13     7   ar
@<TRIPOS>MOLECULE
*****
 28 31 0 0 0
SMALL
GASTEIGER

@<TRIPOS>ATOM
      1 C         143.4291  141.1686  162.6722 C.3     1  UNL1        0.0035
      2 C         143.5920  139.9142  163.4784 C.3     1  UNL1        0.0215
      3 C         143.2348  139.9073  164.9352 C.3     1  UNL1        0.0922
      4 N         142.7148  141.1547  165.5859 N.pl3   1  UNL1       -0.2932
      5 C         142.5519  142.4091  164.7797 C.3     1  UNL1        0.0922
      6 C         142.9091  142.4160  163.3229 C.3     1  UNL1        0.0215
      7 C         142.3576  141.1478  167.0427 C.ar    1  UNL1        0.1352
      8 C         141.7047  142.3485  167.6606 C.ar    1  UNL1        0.0640
      9 C         141.3475  142.3416  169.1174 C.ar    1  UNL1        0.1532
     10 N         141.6432  141.1339  169.9564 N.ar    1  UNL1       -0.2203
     11 C         142.2962  139.9331  169.3385 C.ar    1  UNL1        0.1417
     12 C         142.5919  138.7253  170.1775 C.3     1  UNL1        0.0737
     13 N         142.6533  139.9401  167.8817 N.ar    1  UNL1       -0.2160
     14 C         140.6945  143.5425  169.7353 C.1     1  UNL1        0.1199
     15 N         140.0416  144.7433  170.3531 N.1     1  UNL1       -0.1893
     16 N         144.5007  141.1894  158.3017 N.pl3   1  UNL1       -0.2920
     17 C         144.7676  142.4007  159.1451 C.3     1  UNL1        0.0922
     18 C         144.4104  142.3938  160.6020 C.3     1  UNL1        0.0215
     19 C         143.7863  141.1755  161.2154 C.3     1  UNL1        0.0035
     20 C         143.5194  139.9642  160.3720 C.3     1  UNL1        0.0215
     21 C         143.8766  139.9711  158.9151 C.3     1  UNL1        0.0922
     22 C         145.9294  141.2171  152.4744 C.3     1  UNL1        0.0538
     23 C         145.5722  141.2102  153.9312 C.ar    1  UNL1        0.0786
     24 C         146.0596  142.3093  154.8281 C.ar    1  UNL1        0.1150
     25 N         145.7024  142.3023  156.2850 N.ar    1  UNL1       -0.2263
     26 C         144.8579  141.1963  156.8449 C.ar    1  UNL1        0.1511
     27 C         144.3705  140.0973  155.9479 C.ar    1  UNL1        0.1326
     28 N         144.7277  140.1042  154.4911 N.ar    1  UNL1       -0.2437
@<TRIPOS>BOND
     1    22    23    1
     2    23    24   ar
     3    24    25   ar
     4    25    26   ar
     5    26    16    1
     6    16    17    1
     7    17    18    1
     8    18    19    1
     9    19     1    1
    10     1     2    1
    11     2     3    1
    12     3     4    1
    13     4     7    1
    14     7     8   ar
    15     8     9   ar
    16     9    14    1
    17    14    15    3
    18     9    10   ar
    19    10    11   ar
    20    11    12    1
    21    11    13   ar
    22     4     5    1
    23     5     6    1
    24    19    20    1
    25    20    21    1
    26    26    27   ar
    27    27    28   ar
    28    28    23   ar
    29    21    16    1
    30     6     1    1
    31    13     7   ar
@<TRIPOS>MOLECULE
*****
 28 31 0 0 0
SMALL
GASTEIGER

@<TRIPOS>ATOM
      1 C         141.3956  139.1662  162.4347 C.3     1  UNL1        0.0035
      2 C         140.7707  140.4749  162.8179 C.3     1  UNL1        0.0215
      3 C         140.7328  140.8949  164.2574 C.3     1  UNL1        0.0922
      4 N         141.3197  140.0062  165.3137 N.pl3   1  UNL1       -0.2932
      5 C         141.9445  138.6975  164.9305 C.3     1  UNL1        0.0922
      6 C         141.9825  138.2775  163.4910 C.3     1  UNL1        0.0215
      7 C         141.2818  140.4262  166.7532 C.ar    1  UNL1        0.1352
      8 C         142.4595  141.1287  167.3608 C.ar    1  UNL1        0.0640
      9 C         142.4216  141.5487  168.8003 C.ar    1  UNL1        0.1532
     10 N         141.2059  141.2662  169.6322 N.ar    1  UNL1       -0.2203
     11 C         140.0281  140.5636  169.0246 C.ar    1  UNL1        0.1417
     12 C         138.8123  140.2811  169.8566 C.3     1  UNL1        0.0737
     13 N         140.0660  140.1436  167.5851 N.ar    1  UNL1       -0.2160
     14 C         143.5995  142.2512  169.4079 C.1     1  UNL1        0.1199
     15 N         144.7773  142.9538  170.0155 N.1     1  UNL1       -0.1893
     16 N         141.5093  137.9062  158.1162 N.pl3   1  UNL1       -0.2920
     17 C         142.7208  137.7262  158.9822 C.3     1  UNL1        0.0922
     18 C         142.6829  138.1462  160.4217 C.3     1  UNL1        0.0215
     19 C         141.4335  138.7462  160.9952 C.3     1  UNL1        0.0035
     20 C         140.2220  138.9262  160.1292 C.3     1  UNL1        0.0215
     21 C         140.2600  138.5062  158.6897 C.3     1  UNL1        0.0922
     22 C         141.6611  136.2262  152.3582 C.3     1  UNL1        0.0538
     23 C         141.6231  136.6462  153.7977 C.ar    1  UNL1        0.0786
     24 C         140.8934  137.8948  154.1957 C.ar    1  UNL1        0.1150
     25 N         140.8555  138.3148  155.6352 N.ar    1  UNL1       -0.2263
     26 C         141.5473  137.4862  156.6767 C.ar    1  UNL1        0.1511
     27 C         142.2770  136.2376  156.2787 C.ar    1  UNL1        0.1326
     28 N         142.3149  135.8176  154.8392 N.ar    1  UNL1       -0.2437
@<TRIPOS>BOND
     1    22    23    1
     2    23    24   ar
     3    24    25   ar
     4    25    26   ar
     5    26    16    1
     6    16    17    1
     7    17    18    1
     8    18    19    1
     9    19     1    1
    10     1     2    1
    11     2     3    1
    12     3     4    1
    13     4     7    1
    14     7     8   ar
    15     8     9   ar
    16     9    14    1
    17    14    15    3
    18     9    10   ar
    19    10    11   ar
    20    11    12    1
    21    11    13   ar
    22     4     5    1
    23     5     6    1
    24    19    20    1
    25    20    21    1
    26    26    27   ar
    27    27    28   ar
    28    28    23   ar
    29    21    16    1
    30     6     1    1
    31    13     7   ar
@<TRIPOS>MOLECULE
*****
 28 31 0 0 0
SMALL
GASTEIGER

@<TRIPOS>ATOM
      1 C         139.3214  141.5077  162.5796 C.3     1  UNL1        0.0035
      2 C         138.3931  142.0432  163.6291 C.3     1  UNL1        0.0215
      3 C         138.8229  142.0734  165.0658 C.3     1  UNL1        0.0922
      4 N         140.1811  141.5682  165.4531 N.pl3   1  UNL1       -0.2932
      5 C         141.1094  141.0327  164.4037 C.3     1  UNL1        0.0922
      6 C         140.6796  141.0025  162.9669 C.3     1  UNL1        0.0215
      7 C         140.6109  141.5984  166.8899 C.ar    1  UNL1        0.1352
      8 C         141.3037  140.4113  167.4906 C.ar    1  UNL1        0.0640
      9 C         141.7335  140.4416  168.9274 C.ar    1  UNL1        0.1532
     10 N         141.4706  141.6588  169.7635 N.ar    1  UNL1       -0.2203
     11 C         140.7778  142.8459  169.1628 C.ar    1  UNL1        0.1417
     12 C         140.5148  144.0633  169.9988 C.3     1  UNL1        0.0737
     13 N         140.3480  142.8157  167.7260 N.ar    1  UNL1       -0.2160
     14 C         142.4263  139.2544  169.5281 C.1     1  UNL1        0.1199
     15 N         143.1191  138.0673  170.1288 N.1     1  UNL1       -0.1893
     16 N         138.0319  141.4171  158.2693 N.pl3   1  UNL1       -0.2920
     17 C         137.9250  140.1797  159.1103 C.3     1  UNL1        0.0922
     18 C         138.3548  140.2099  160.5470 C.3     1  UNL1        0.0215
     19 C         138.8915  141.4775  161.1428 C.3     1  UNL1        0.0035
     20 C         138.9984  142.7149  160.3018 C.3     1  UNL1        0.0215
     21 C         138.5686  142.6847  158.8650 C.3     1  UNL1        0.0922
     22 C         136.3125  141.2962  152.5222 C.3     1  UNL1        0.0538
     23 C         136.7423  141.3264  153.9589 C.ar    1  UNL1        0.0786
     24 C         136.4525  140.1576  154.8532 C.ar    1  UNL1        0.1150
     25 N         136.8824  140.1878  156.2900 N.ar    1  UNL1       -0.2263
     26 C         137.6020  141.3869  156.8325 C.ar    1  UNL1        0.1511
     27 C         137.8919  142.5557  155.9382 C.ar    1  UNL1        0.1326
     28 N         137.4620  142.5254  154.5014 N.ar    1  UNL1       -0.2437
@<TRIPOS>BOND
     1    22    23    1
     2    23    24   ar
     3    24    25   ar
     4    25    26   ar
     5    26    16    1
     6    16    17    1
     7    17    18    1
     8    18    19    1
     9    19     1    1
    10     1     2    1
    11     2     3    1
    12     3     4    1
    13     4     7    1
    14     7     8   ar
    15     8     9   ar
    16     9    14    1
    17    14    15    3
    18     9    10   ar
    19    10    11   ar
    20    11    12    1
    21    11    13   ar
    22     4     5    1
    23     5     6    1
    24    19    20    1
    25    20    21    1
    26    26    27   ar
    27    27    28   ar
    28    28    23   ar
    29    21    16    1
    30     6     1    1
    31    13     7   ar
