@<TRIPOS>MOLECULE
*****
 30 34 0 0 0
SMALL
GASTEIGER

@<TRIPOS>ATOM
      1 C         141.2482  138.7464  162.0803 C.ar    1  UNL1        0.0681
      2 C         140.8343  139.6226  160.9354 C.ar    1  UNL1        0.0208
      3 C         141.4413  139.4205  159.5787 C.ar    1  UNL1        0.0384
      4 C         142.4623  138.3422  159.3670 C.ar    1  UNL1        0.1385
      5 C         142.8762  137.4660  160.5120 C.ar    1  UNL1        0.0384
      6 C         142.2692  137.6681  161.8686 C.ar    1  UNL1        0.0208
      7 C         138.4574  137.7941  162.6319 C.3     1  UNL1        0.0723
      8 C         139.2457  138.4724  163.7128 C.ar    1  UNL1        0.1268
      9 N         138.6386  138.6746  165.0695 N.ar    1  UNL1       -0.2318
     10 C         139.4270  139.3529  166.1505 C.ar    1  UNL1        0.0880
     11 C         138.8199  139.5550  167.5071 C.ar    1  UNL1        0.0307
     12 C         139.6082  140.2334  168.5880 C.ar    1  UNL1        0.0592
     13 CL        139.0011  140.4355  169.9447 Cl      1  UNL1       -0.0822
     14 C         141.0036  140.7096  168.3122 C.ar    1  UNL1        0.0116
     15 C         141.6107  140.5074  166.9556 C.ar    1  UNL1        0.0071
     16 C         140.8224  139.8291  165.8747 C.ar    1  UNL1        0.0742
     17 C         141.4295  139.6269  164.5180 C.ar    1  UNL1        0.2669
     18 O         142.8249  140.1031  164.2422 O.2     1  UNL1       -0.2665
     19 N         140.6411  138.9486  163.4371 N.ar    1  UNL1       -0.2626
     20 O         143.0693  138.1400  158.0103 O.3     1  UNL1       -0.4791
     21 C         142.6565  136.9673  157.1711 C.3     1  UNL1        0.1687
     22 C         141.5288  137.1059  156.1916 C.3     1  UNL1        0.0609
     23 C         141.1160  135.9331  155.3524 C.3     1  UNL1        0.0758
     24 N         141.8308  134.6218  155.4927 N.3     1  UNL1       -0.2737
     25 C         142.9584  134.4833  156.4721 C.3     1  UNL1        0.0758
     26 C         143.3712  135.6560  157.3113 C.3     1  UNL1        0.0609
     27 C         141.4179  133.4491  154.6535 C.3     1  UNL1        0.0575
     28 C         141.0271  132.0285  154.9351 C.3     1  UNL1        0.0160
     29 C         140.8341  131.7906  153.4668 C.3     1  UNL1        0.0028
     30 C         141.2248  133.2111  153.1852 C.3     1  UNL1        0.0160
@<TRIPOS>BOND
     1     7     8    1
     2     8     9   ar
     3     9    10   ar
     4    10    11   ar
     5    11    12   ar
     6    12    13    1
     7    12    14   ar
     8    14    15   ar
     9    15    16   ar
    10    16    17   ar
    11    17    18    2
    12    17    19   ar
    13    19     1    1
    14     1     2   ar
    15     2     3   ar
    16     3     4   ar
    17     4    20    1
    18    20    21    1
    19    21    22    1
    20    22    23    1
    21    23    24    1
    22    24    27    1
    23    27    28    1
    24    28    29    1
    25    29    30    1
    26    24    25    1
    27    25    26    1
    28     4     5   ar
    29     5     6   ar
    30    19     8   ar
    31     6     1   ar
    32    16    10   ar
    33    26    21    1
    34    30    27    1
@<TRIPOS>MOLECULE
*****
 30 34 0 0 0
SMALL
GASTEIGER

@<TRIPOS>ATOM
      1 C         141.8372  138.8337  161.5893 C.ar    1  UNL1        0.0681
      2 C         141.2872  139.6177  160.4348 C.ar    1  UNL1        0.0208
      3 C         141.6599  139.2458  159.0302 C.ar    1  UNL1        0.0384
      4 C         142.5825  138.0899  158.7802 C.ar    1  UNL1        0.1385
      5 C         143.1325  137.3059  159.9347 C.ar    1  UNL1        0.0384
      6 C         142.7599  137.6778  161.3392 C.ar    1  UNL1        0.0208
      7 C         143.5829  140.7006  163.1600 C.3     1  UNL1        0.0723
      8 C         142.3374  140.1391  163.7792 C.ar    1  UNL1        0.1268
      9 N         141.9647  140.5110  165.1837 N.ar    1  UNL1       -0.2318
     10 C         140.7191  139.9495  165.8030 C.ar    1  UNL1        0.0880
     11 C         140.3465  140.3215  167.2075 C.ar    1  UNL1        0.0307
     12 C         139.1010  139.7600  167.8267 C.ar    1  UNL1        0.0592
     13 CL        138.7283  140.1319  169.2313 Cl      1  UNL1       -0.0822
     14 C         138.2281  138.8265  167.0413 C.ar    1  UNL1        0.0116
     15 C         138.6008  138.4546  165.6368 C.ar    1  UNL1        0.0071
     16 C         139.8463  139.0161  165.0176 C.ar    1  UNL1        0.0742
     17 C         140.2190  138.6441  163.6130 C.ar    1  UNL1        0.2669
     18 O         139.3461  137.7107  162.8276 O.2     1  UNL1       -0.2665
     19 N         141.4645  139.2056  162.9939 N.ar    1  UNL1       -0.2626
     20 O         142.9552  137.7180  157.3756 O.3     1  UNL1       -0.4791
     21 C         142.6237  136.3535  156.8480 C.3     1  UNL1        0.1687
     22 C         141.5721  136.1935  155.7903 C.3     1  UNL1        0.0609
     23 C         141.2405  134.8291  155.2627 C.3     1  UNL1        0.0758
     24 N         141.9606  133.6246  155.7928 N.3     1  UNL1       -0.2737
     25 C         143.0121  133.7847  156.8504 C.3     1  UNL1        0.0758
     26 C         143.3436  135.1491  157.3780 C.3     1  UNL1        0.0609
     27 C         141.6290  132.2602  155.2651 C.3     1  UNL1        0.0575
     28 C         140.7646  131.7320  154.1588 C.3     1  UNL1        0.0160
     29 C         141.1601  130.3306  154.5190 C.3     1  UNL1        0.0028
     30 C         142.0244  130.8588  155.6252 C.3     1  UNL1        0.0160
@<TRIPOS>BOND
     1     7     8    1
     2     8     9   ar
     3     9    10   ar
     4    10    11   ar
     5    11    12   ar
     6    12    13    1
     7    12    14   ar
     8    14    15   ar
     9    15    16   ar
    10    16    17   ar
    11    17    18    2
    12    17    19   ar
    13    19     1    1
    14     1     2   ar
    15     2     3   ar
    16     3     4   ar
    17     4    20    1
    18    20    21    1
    19    21    22    1
    20    22    23    1
    21    23    24    1
    22    24    27    1
    23    27    28    1
    24    28    29    1
    25    29    30    1
    26    24    25    1
    27    25    26    1
    28     4     5   ar
    29     5     6   ar
    30    19     8   ar
    31     6     1   ar
    32    16    10   ar
    33    26    21    1
    34    30    27    1
@<TRIPOS>MOLECULE
*****
 30 34 0 0 0
SMALL
GASTEIGER

@<TRIPOS>ATOM
      1 C         142.1509  138.7713  159.7443 C.ar    1  UNL1        0.0681
      2 C         140.7053  139.1697  159.7835 C.ar    1  UNL1        0.0208
      3 C         139.8458  138.7610  160.9428 C.ar    1  UNL1        0.0384
      4 C         140.4319  137.9539  162.0631 C.ar    1  UNL1        0.1385
      5 C         141.8775  137.5555  162.0240 C.ar    1  UNL1        0.0384
      6 C         142.7370  137.9642  160.8646 C.ar    1  UNL1        0.0208
      7 C         142.2189  137.0892  157.2612 C.3     1  UNL1        0.0723
      8 C         143.0445  138.3390  157.3433 C.ar    1  UNL1        0.1268
      9 N         143.9039  138.7477  156.1839 N.ar    1  UNL1       -0.2318
     10 C         144.7294  139.9974  156.2660 C.ar    1  UNL1        0.0880
     11 C         145.5889  140.4061  155.1066 C.ar    1  UNL1        0.0307
     12 C         146.4143  141.6558  155.1888 C.ar    1  UNL1        0.0592
     13 CL        147.2739  142.0646  154.0293 Cl      1  UNL1       -0.0822
     14 C         146.3803  142.4969  156.4304 C.ar    1  UNL1        0.0116
     15 C         145.5209  142.0882  157.5898 C.ar    1  UNL1        0.0071
     16 C         144.6954  140.8385  157.5076 C.ar    1  UNL1        0.0742
     17 C         143.8359  140.4297  158.6671 C.ar    1  UNL1        0.2669
     18 O         143.8019  141.2708  159.9086 O.2     1  UNL1       -0.2665
     19 N         143.0105  139.1800  158.5849 N.ar    1  UNL1       -0.2626
     20 O         139.5724  137.5452  163.2225 O.3     1  UNL1       -0.4791
     21 C         139.6148  138.3292  164.5006 C.3     1  UNL1        0.1687
     22 C         140.8038  139.1883  164.8144 C.3     1  UNL1        0.0609
     23 C         140.8462  139.9723  166.0925 C.3     1  UNL1        0.0758
     24 N         139.6997  139.8971  167.0569 N.3     1  UNL1       -0.2737
     25 C         138.5108  139.0380  166.7431 C.3     1  UNL1        0.0758
     26 C         138.4684  138.2540  165.4650 C.3     1  UNL1        0.0609
     27 C         139.7421  140.6811  168.3350 C.3     1  UNL1        0.0575
     28 C         139.1964  140.4848  169.7184 C.3     1  UNL1        0.0160
     29 C         139.8021  141.7898  170.1425 C.3     1  UNL1        0.0028
     30 C         140.3478  141.9862  168.7592 C.3     1  UNL1        0.0160
@<TRIPOS>BOND
     1     7     8    1
     2     8     9   ar
     3     9    10   ar
     4    10    11   ar
     5    11    12   ar
     6    12    13    1
     7    12    14   ar
     8    14    15   ar
     9    15    16   ar
    10    16    17   ar
    11    17    18    2
    12    17    19   ar
    13    19     1    1
    14     1     2   ar
    15     2     3   ar
    16     3     4   ar
    17     4    20    1
    18    20    21    1
    19    21    22    1
    20    22    23    1
    21    23    24    1
    22    24    27    1
    23    27    28    1
    24    28    29    1
    25    29    30    1
    26    24    25    1
    27    25    26    1
    28     4     5   ar
    29     5     6   ar
    30    19     8   ar
    31     6     1   ar
    32    16    10   ar
    33    26    21    1
    34    30    27    1
@<TRIPOS>MOLECULE
*****
 30 34 0 0 0
SMALL
GASTEIGER

@<TRIPOS>ATOM
      1 C         140.9798  139.3727  160.1350 C.ar    1  UNL1        0.0681
      2 C         140.5999  139.4172  158.6846 C.ar    1  UNL1        0.0208
      3 C         141.3880  138.6321  157.6785 C.ar    1  UNL1        0.0384
      4 C         142.5560  137.8024  158.1228 C.ar    1  UNL1        0.1385
      5 C         142.9359  137.7579  159.5732 C.ar    1  UNL1        0.0384
      6 C         142.1478  138.5430  160.5793 C.ar    1  UNL1        0.0208
      7 C         138.6046  138.1291  161.4811 C.3     1  UNL1        0.0723
      8 C         139.0040  139.5361  161.8142 C.ar    1  UNL1        0.1268
      9 N         138.2158  140.3213  162.8203 N.ar    1  UNL1       -0.2318
     10 C         138.6152  141.7283  163.1535 C.ar    1  UNL1        0.0880
     11 C         137.8270  142.5134  164.1596 C.ar    1  UNL1        0.0307
     12 C         138.2265  143.9203  164.4926 C.ar    1  UNL1        0.0592
     13 CL        137.4383  144.7055  165.4988 Cl      1  UNL1       -0.0822
     14 C         139.4141  144.5421  163.8196 C.ar    1  UNL1        0.0116
     15 C         140.2023  143.7570  162.8135 C.ar    1  UNL1        0.0071
     16 C         139.8028  142.3501  162.4804 C.ar    1  UNL1        0.0742
     17 C         140.5910  141.5648  161.4743 C.ar    1  UNL1        0.2669
     18 O         141.7786  142.1866  160.8013 O.2     1  UNL1       -0.2665
     19 N         140.1916  140.1579  161.1412 N.ar    1  UNL1       -0.2626
     20 O         143.3442  137.0172  157.1166 O.3     1  UNL1       -0.4791
     21 C         142.8720  135.6595  156.6881 C.3     1  UNL1        0.1687
     22 C         141.8216  135.5318  155.6248 C.3     1  UNL1        0.0609
     23 C         141.3494  134.1740  155.1963 C.3     1  UNL1        0.0758
     24 N         141.9275  132.9440  155.8312 N.3     1  UNL1       -0.2737
     25 C         142.9778  133.0718  156.8945 C.3     1  UNL1        0.0758
     26 C         143.4500  134.4295  157.3229 C.3     1  UNL1        0.0609
     27 C         141.4553  131.5863  155.4027 C.3     1  UNL1        0.0575
     28 C         140.2580  131.0635  154.6656 C.3     1  UNL1        0.0160
     29 C         140.7874  129.6662  154.7968 C.3     1  UNL1        0.0028
     30 C         141.9846  130.1890  155.5338 C.3     1  UNL1        0.0160
@<TRIPOS>BOND
     1     7     8    1
     2     8     9   ar
     3     9    10   ar
     4    10    11   ar
     5    11    12   ar
     6    12    13    1
     7    12    14   ar
     8    14    15   ar
     9    15    16   ar
    10    16    17   ar
    11    17    18    2
    12    17    19   ar
    13    19     1    1
    14     1     2   ar
    15     2     3   ar
    16     3     4   ar
    17     4    20    1
    18    20    21    1
    19    21    22    1
    20    22    23    1
    21    23    24    1
    22    24    27    1
    23    27    28    1
    24    28    29    1
    25    29    30    1
    26    24    25    1
    27    25    26    1
    28     4     5   ar
    29     5     6   ar
    30    19     8   ar
    31     6     1   ar
    32    16    10   ar
    33    26    21    1
    34    30    27    1
@<TRIPOS>MOLECULE
*****
 30 34 0 0 0
SMALL
GASTEIGER

@<TRIPOS>ATOM
      1 C         140.1032  140.1906  158.8043 C.ar    1  UNL1        0.0681
      2 C         141.3280  140.4651  157.9830 C.ar    1  UNL1        0.0208
      3 C         141.7546  139.4920  156.9243 C.ar    1  UNL1        0.0384
      4 C         140.9565  138.2444  156.6869 C.ar    1  UNL1        0.1385
      5 C         139.7317  137.9699  157.5082 C.ar    1  UNL1        0.0384
      6 C         139.3051  138.9430  158.5669 C.ar    1  UNL1        0.0208
      7 C         138.1700  142.3845  158.1339 C.3     1  UNL1        0.0723
      8 C         138.7100  142.2608  159.5279 C.ar    1  UNL1        0.1268
      9 N         138.2833  143.2340  160.5866 N.ar    1  UNL1       -0.2318
     10 C         138.8233  143.1102  161.9806 C.ar    1  UNL1        0.0880
     11 C         138.3967  144.0834  163.0393 C.ar    1  UNL1        0.0307
     12 C         138.9367  143.9597  164.4332 C.ar    1  UNL1        0.0592
     13 CL        138.5100  144.9329  165.4919 Cl      1  UNL1       -0.0822
     14 C         139.9033  142.8627  164.7684 C.ar    1  UNL1        0.0116
     15 C         140.3299  141.8895  163.7097 C.ar    1  UNL1        0.0071
     16 C         139.7899  142.0133  162.3158 C.ar    1  UNL1        0.0742
     17 C         140.2166  141.0401  161.2570 C.ar    1  UNL1        0.2669
     18 O         141.1832  139.9431  161.5923 O.2     1  UNL1       -0.2665
     19 N         139.6766  141.1638  159.8631 N.ar    1  UNL1       -0.2626
     20 O         141.3831  137.2712  155.6281 O.3     1  UNL1       -0.4791
     21 C         141.9506  135.9388  156.0189 C.3     1  UNL1        0.1687
     22 C         141.4578  134.6889  155.3517 C.3     1  UNL1        0.0609
     23 C         142.0252  133.3565  155.7425 C.3     1  UNL1        0.0758
     24 N         143.0854  133.2740  156.8006 N.3     1  UNL1       -0.2737
     25 C         143.5781  134.5238  157.4677 C.3     1  UNL1        0.0758
     26 C         143.0107  135.8562  157.0769 C.3     1  UNL1        0.0609
     27 C         143.6528  131.9416  157.1914 C.3     1  UNL1        0.0575
     28 C         144.9018  131.4824  157.8838 C.3     1  UNL1        0.0160
     29 C         144.4553  130.0573  157.7441 C.3     1  UNL1        0.0028
     30 C         143.2064  130.5164  157.0517 C.3     1  UNL1        0.0160
@<TRIPOS>BOND
     1     7     8    1
     2     8     9   ar
     3     9    10   ar
     4    10    11   ar
     5    11    12   ar
     6    12    13    1
     7    12    14   ar
     8    14    15   ar
     9    15    16   ar
    10    16    17   ar
    11    17    18    2
    12    17    19   ar
    13    19     1    1
    14     1     2   ar
    15     2     3   ar
    16     3     4   ar
    17     4    20    1
    18    20    21    1
    19    21    22    1
    20    22    23    1
    21    23    24    1
    22    24    27    1
    23    27    28    1
    24    28    29    1
    25    29    30    1
    26    24    25    1
    27    25    26    1
    28     4     5   ar
    29     5     6   ar
    30    19     8   ar
    31     6     1   ar
    32    16    10   ar
    33    26    21    1
    34    30    27    1
@<TRIPOS>MOLECULE
*****
 30 34 0 0 0
SMALL
GASTEIGER

@<TRIPOS>ATOM
      1 C         142.0558  138.5832  159.9577 C.ar    1  UNL1        0.0681
      2 C         141.7123  137.8381  161.2134 C.ar    1  UNL1        0.0208
      3 C         142.5215  138.0527  162.4580 C.ar    1  UNL1        0.0384
      4 C         143.6743  139.0124  162.4469 C.ar    1  UNL1        0.1385
      5 C         144.0178  139.7575  161.1912 C.ar    1  UNL1        0.0384
      6 C         143.2085  139.5429  159.9466 C.ar    1  UNL1        0.0208
      7 C         139.3552  139.8611  159.6856 C.3     1  UNL1        0.0723
      8 C         139.8962  139.0076  158.5770 C.ar    1  UNL1        0.1268
      9 N         139.0869  138.7930  157.3325 N.ar    1  UNL1       -0.2318
     10 C         139.6279  137.9394  156.2239 C.ar    1  UNL1        0.0880
     11 C         138.8186  137.7249  154.9793 C.ar    1  UNL1        0.0307
     12 C         139.3596  136.8714  153.8708 C.ar    1  UNL1        0.0592
     13 CL        138.5503  136.6568  152.6262 Cl      1  UNL1       -0.0822
     14 C         140.7098  136.2324  154.0069 C.ar    1  UNL1        0.0116
     15 C         141.5191  136.4470  155.2514 C.ar    1  UNL1        0.0071
     16 C         140.9782  137.3005  156.3599 C.ar    1  UNL1        0.0742
     17 C         141.7875  137.5151  157.6046 C.ar    1  UNL1        0.2669
     18 O         143.1377  136.8762  157.7406 O.2     1  UNL1       -0.2665
     19 N         141.2465  138.3686  158.7131 N.ar    1  UNL1       -0.2626
     20 O         144.4836  139.2270  163.6915 O.3     1  UNL1       -0.4791
     21 C         143.8952  139.9792  164.8483 C.3     1  UNL1        0.1687
     22 C         143.8815  141.4792  164.8384 C.3     1  UNL1        0.0609
     23 C         143.2931  142.2314  165.9951 C.3     1  UNL1        0.0758
     24 N         142.7186  141.4836  167.1617 N.3     1  UNL1       -0.2737
     25 C         142.7324  139.9838  167.1715 C.3     1  UNL1        0.0758
     26 C         143.3207  139.2315  166.0148 C.3     1  UNL1        0.0609
     27 C         142.1302  142.2359  168.3185 C.3     1  UNL1        0.0575
     28 C         142.6206  142.6493  169.6745 C.3     1  UNL1        0.0160
     29 C         141.2982  143.2996  169.9543 C.3     1  UNL1        0.0028
     30 C         140.8079  142.8862  168.5984 C.3     1  UNL1        0.0160
@<TRIPOS>BOND
     1     7     8    1
     2     8     9   ar
     3     9    10   ar
     4    10    11   ar
     5    11    12   ar
     6    12    13    1
     7    12    14   ar
     8    14    15   ar
     9    15    16   ar
    10    16    17   ar
    11    17    18    2
    12    17    19   ar
    13    19     1    1
    14     1     2   ar
    15     2     3   ar
    16     3     4   ar
    17     4    20    1
    18    20    21    1
    19    21    22    1
    20    22    23    1
    21    23    24    1
    22    24    27    1
    23    27    28    1
    24    28    29    1
    25    29    30    1
    26    24    25    1
    27    25    26    1
    28     4     5   ar
    29     5     6   ar
    30    19     8   ar
    31     6     1   ar
    32    16    10   ar
    33    26    21    1
    34    30    27    1
@<TRIPOS>MOLECULE
*****
 30 34 0 0 0
SMALL
GASTEIGER

@<TRIPOS>ATOM
      1 C         140.6467  139.9260  159.6850 C.ar    1  UNL1        0.0681
      2 C         141.7378  140.2667  158.7138 C.ar    1  UNL1        0.0208
      3 C         141.9365  139.4296  157.4851 C.ar    1  UNL1        0.0384
      4 C         141.0441  138.2518  157.2277 C.ar    1  UNL1        0.1385
      5 C         139.9530  137.9111  158.1990 C.ar    1  UNL1        0.0384
      6 C         139.7543  138.7482  159.4277 C.ar    1  UNL1        0.0208
      7 C         142.5264  139.6517  162.0070 C.3     1  UNL1        0.0723
      8 C         141.3879  140.6261  162.0748 C.ar    1  UNL1        0.1268
      9 N         141.1893  141.4632  163.3035 N.ar    1  UNL1       -0.2318
     10 C         140.0507  142.4375  163.3712 C.ar    1  UNL1        0.0880
     11 C         139.8521  143.2746  164.5999 C.ar    1  UNL1        0.0307
     12 C         138.7136  144.2489  164.6676 C.ar    1  UNL1        0.0592
     13 CL        138.5149  145.0861  165.8964 Cl      1  UNL1       -0.0822
     14 C         137.7738  144.3860  163.5066 C.ar    1  UNL1        0.0116
     15 C         137.9724  143.5489  162.2780 C.ar    1  UNL1        0.0071
     16 C         139.1109  142.5746  162.2102 C.ar    1  UNL1        0.0742
     17 C         139.3096  141.7375  160.9815 C.ar    1  UNL1        0.2669
     18 O         138.3697  141.8746  159.8205 O.2     1  UNL1       -0.2665
     19 N         140.4480  140.7632  160.9138 N.ar    1  UNL1       -0.2626
     20 O         141.2428  137.4146  155.9989 O.3     1  UNL1       -0.4791
     21 C         141.8348  136.0412  156.1148 C.3     1  UNL1        0.1687
     22 C         141.2903  134.9173  155.2839 C.3     1  UNL1        0.0609
     23 C         141.8823  133.5439  155.3998 C.3     1  UNL1        0.0758
     24 N         143.0188  133.2945  156.3466 N.3     1  UNL1       -0.2737
     25 C         143.5632  134.4184  157.1774 C.3     1  UNL1        0.0758
     26 C         142.9712  135.7918  157.0615 C.3     1  UNL1        0.0609
     27 C         143.6107  131.9211  156.4624 C.3     1  UNL1        0.0575
     28 C         143.1803  130.6304  157.0940 C.3     1  UNL1        0.0160
     29 C         144.4479  129.9789  156.6263 C.3     1  UNL1        0.0028
     30 C         144.8783  131.2696  155.9948 C.3     1  UNL1        0.0160
@<TRIPOS>BOND
     1     7     8    1
     2     8     9   ar
     3     9    10   ar
     4    10    11   ar
     5    11    12   ar
     6    12    13    1
     7    12    14   ar
     8    14    15   ar
     9    15    16   ar
    10    16    17   ar
    11    17    18    2
    12    17    19   ar
    13    19     1    1
    14     1     2   ar
    15     2     3   ar
    16     3     4   ar
    17     4    20    1
    18    20    21    1
    19    21    22    1
    20    22    23    1
    21    23    24    1
    22    24    27    1
    23    27    28    1
    24    28    29    1
    25    29    30    1
    26    24    25    1
    27    25    26    1
    28     4     5   ar
    29     5     6   ar
    30    19     8   ar
    31     6     1   ar
    32    16    10   ar
    33    26    21    1
    34    30    27    1
@<TRIPOS>MOLECULE
*****
 30 34 0 0 0
SMALL
GASTEIGER

@<TRIPOS>ATOM
      1 C         140.5365  144.2502  159.5257 C.ar    1  UNL1        0.0681
      2 C         139.5635  143.5815  158.6004 C.ar    1  UNL1        0.0208
      3 C         139.4437  144.0418  157.1779 C.ar    1  UNL1        0.0384
      4 C         140.2970  145.1707  156.6805 C.ar    1  UNL1        0.1385
      5 C         141.2700  145.8394  157.6057 C.ar    1  UNL1        0.0384
      6 C         141.3898  145.3791  159.0283 C.ar    1  UNL1        0.0208
      7 C         142.3493  141.9612  160.2140 C.3     1  UNL1        0.0723
      8 C         141.5627  142.6454  161.2925 C.ar    1  UNL1        0.1268
      9 N         141.6824  142.1851  162.7151 N.ar    1  UNL1       -0.2318
     10 C         140.8958  142.8693  163.7935 C.ar    1  UNL1        0.0880
     11 C         141.0155  142.4090  165.2161 C.ar    1  UNL1        0.0307
     12 C         140.2289  143.0932  166.2945 C.ar    1  UNL1        0.0592
     13 CL        140.3486  142.6329  167.7171 Cl      1  UNL1       -0.0822
     14 C         139.3225  144.2378  165.9503 C.ar    1  UNL1        0.0116
     15 C         139.2027  144.6981  164.5278 C.ar    1  UNL1        0.0071
     16 C         139.9893  144.0138  163.4494 C.ar    1  UNL1        0.0742
     17 C         139.8696  144.4741  162.0267 C.ar    1  UNL1        0.2669
     18 O         138.9632  145.6187  161.6826 O.2     1  UNL1       -0.2665
     19 N         140.6562  143.7899  160.9483 N.ar    1  UNL1       -0.2626
     20 O         140.1772  145.6310  155.2579 O.3     1  UNL1       -0.4791
     21 C         139.8693  147.0681  154.9580 C.3     1  UNL1        0.1687
     22 C         140.4741  147.7295  153.7551 C.3     1  UNL1        0.0609
     23 C         140.1662  149.1666  153.4552 C.3     1  UNL1        0.0758
     24 N         139.2535  149.9423  154.3582 N.3     1  UNL1       -0.2737
     25 C         138.6488  149.2809  155.5610 C.3     1  UNL1        0.0758
     26 C         138.9567  147.8438  155.8609 C.3     1  UNL1        0.0609
     27 C         138.9456  151.3794  154.0583 C.3     1  UNL1        0.0575
     28 C         138.9175  152.2216  152.8173 C.3     1  UNL1        0.0160
     29 C         138.5102  153.4118  153.6342 C.3     1  UNL1        0.0028
     30 C         138.5383  152.5697  154.8752 C.3     1  UNL1        0.0160
@<TRIPOS>BOND
     1     7     8    1
     2     8     9   ar
     3     9    10   ar
     4    10    11   ar
     5    11    12   ar
     6    12    13    1
     7    12    14   ar
     8    14    15   ar
     9    15    16   ar
    10    16    17   ar
    11    17    18    2
    12    17    19   ar
    13    19     1    1
    14     1     2   ar
    15     2     3   ar
    16     3     4   ar
    17     4    20    1
    18    20    21    1
    19    21    22    1
    20    22    23    1
    21    23    24    1
    22    24    27    1
    23    27    28    1
    24    28    29    1
    25    29    30    1
    26    24    25    1
    27    25    26    1
    28     4     5   ar
    29     5     6   ar
    30    19     8   ar
    31     6     1   ar
    32    16    10   ar
    33    26    21    1
    34    30    27    1
@<TRIPOS>MOLECULE
*****
 30 34 0 0 0
SMALL
GASTEIGER

@<TRIPOS>ATOM
      1 C         139.8466  140.5975  159.1072 C.ar    1  UNL1        0.0681
      2 C         140.6830  139.3573  159.2190 C.ar    1  UNL1        0.0208
      3 C         141.1606  138.6607  157.9795 C.ar    1  UNL1        0.0384
      4 C         140.8019  139.2042  156.6282 C.ar    1  UNL1        0.1385
      5 C         139.9656  140.4444  156.5165 C.ar    1  UNL1        0.0384
      6 C         139.4879  141.1410  157.7560 C.ar    1  UNL1        0.0208
      7 C         137.2440  139.7994  160.3680 C.3     1  UNL1        0.0723
      8 C         138.0676  140.8951  160.9772 C.ar    1  UNL1        0.1268
      9 N         137.5899  141.5918  162.2168 N.ar    1  UNL1       -0.2318
     10 C         138.4136  142.6875  162.8260 C.ar    1  UNL1        0.0880
     11 C         137.9359  143.3841  164.0655 C.ar    1  UNL1        0.0307
     12 C         138.7595  144.4798  164.6747 C.ar    1  UNL1        0.0592
     13 CL        138.2818  145.1765  165.9143 Cl      1  UNL1       -0.0822
     14 C         140.0608  144.8789  164.0443 C.ar    1  UNL1        0.0116
     15 C         140.5385  144.1822  162.8048 C.ar    1  UNL1        0.0071
     16 C         139.7149  143.0866  162.1956 C.ar    1  UNL1        0.0742
     17 C         140.1925  142.3899  160.9560 C.ar    1  UNL1        0.2669
     18 O         141.4938  142.7889  160.3256 O.2     1  UNL1       -0.2665
     19 N         139.3689  141.2942  160.3469 N.ar    1  UNL1       -0.2626
     20 O         141.2796  138.5075  155.3886 O.3     1  UNL1       -0.4791
     21 C         141.9066  137.1484  155.4866 C.3     1  UNL1        0.1687
     22 C         143.3933  137.0174  155.6381 C.3     1  UNL1        0.0609
     23 C         144.0203  135.6583  155.7361 C.3     1  UNL1        0.0758
     24 N         143.1607  134.4301  155.6824 N.3     1  UNL1       -0.2737
     25 C         141.6742  134.5611  155.5309 C.3     1  UNL1        0.0758
     26 C         141.0471  135.9202  155.4329 C.3     1  UNL1        0.0609
     27 C         143.7877  133.0710  155.7804 C.3     1  UNL1        0.0575
     28 C         143.6562  131.7848  155.0196 C.3     1  UNL1        0.0160
     29 C         144.6745  131.1489  155.9189 C.3     1  UNL1        0.0028
     30 C         144.8060  132.4349  156.6795 C.3     1  UNL1        0.0160
@<TRIPOS>BOND
     1     7     8    1
     2     8     9   ar
     3     9    10   ar
     4    10    11   ar
     5    11    12   ar
     6    12    13    1
     7    12    14   ar
     8    14    15   ar
     9    15    16   ar
    10    16    17   ar
    11    17    18    2
    12    17    19   ar
    13    19     1    1
    14     1     2   ar
    15     2     3   ar
    16     3     4   ar
    17     4    20    1
    18    20    21    1
    19    21    22    1
    20    22    23    1
    21    23    24    1
    22    24    27    1
    23    27    28    1
    24    28    29    1
    25    29    30    1
    26    24    25    1
    27    25    26    1
    28     4     5   ar
    29     5     6   ar
    30    19     8   ar
    31     6     1   ar
    32    16    10   ar
    33    26    21    1
    34    30    27    1
