@<TRIPOS>MOLECULE
*****
 21 22 0 0 0
SMALL
GASTEIGER

@<TRIPOS>ATOM
      1 C         138.2633  139.6535  163.0085 C.ar    1  UNL1        0.0305
      2 C         138.1658  140.4967  161.7718 C.ar    1  UNL1        0.0306
      3 C         137.9649  141.9786  161.8883 C.ar    1  UNL1        0.1505
      4 F         137.8675  142.8218  160.6515 F       1  UNL1       -0.2033
      5 C         137.8615  142.6174  163.2415 C.ar    1  UNL1        0.0881
      6 CL        137.6606  144.0993  163.3581 Cl      1  UNL1       -0.0798
      7 C         137.9590  141.7742  164.4782 C.ar    1  UNL1        0.0509
      8 C         138.1599  140.2923  164.3617 C.ar    1  UNL1        0.1435
      9 C         138.4642  138.1716  162.8920 C.3     1  UNL1        0.0988
     10 C         140.9823  137.5346  162.8355 C.3     1  UNL1        0.0861
     11 N         139.6549  137.5234  163.5339 N.3     1  UNL1       -0.2925
     12 H         139.7916  137.9841  164.4336 H       1  UNL1        0.1236
     13 O         138.2574  139.4491  165.5985 O.3     1  UNL1       -0.4537
     14 C         139.3978  139.6462  166.5527 C.ar    1  UNL1        0.1462
     15 C         140.8071  139.6809  166.0401 C.ar    1  UNL1        0.0384
     16 C         141.9476  139.8781  166.9943 C.ar    1  UNL1        0.0154
     17 C         141.6788  140.0406  168.4610 C.ar    1  UNL1        0.0684
     18 CL        142.8192  140.2377  169.4152 Cl      1  UNL1       -0.0814
     19 C         140.2696  140.0059  168.9736 C.ar    1  UNL1        0.0712
     20 CL        140.0008  140.1683  170.4403 Cl      1  UNL1       -0.0813
     21 C         139.1290  139.8087  168.0194 C.ar    1  UNL1        0.0497
@<TRIPOS>BOND
     1    10    11    1
     2    11     9    1
     3     9     1    1
     4     1     2   ar
     5     2     3   ar
     6     3     4    1
     7     3     5   ar
     8     5     6    1
     9     5     7   ar
    10     7     8   ar
    11     8    13    1
    12    13    14    1
    13    14    15   ar
    14    15    16   ar
    15    16    17   ar
    16    17    18    1
    17    17    19   ar
    18    19    20    1
    19    19    21   ar
    20     8     1   ar
    21    21    14   ar
    22    11    12    1
@<TRIPOS>MOLECULE
*****
 21 22 0 0 0
SMALL
GASTEIGER

@<TRIPOS>ATOM
      1 C         140.5412  140.4237  166.9855 C.ar    1  UNL1        0.0305
      2 C         139.6758  139.8772  168.0819 C.ar    1  UNL1        0.0306
      3 C         139.4054  140.7016  169.3056 C.ar    1  UNL1        0.1505
      4 F         138.5399  140.1549  170.4020 F       1  UNL1       -0.2033
      5 C         140.0005  142.0725  169.4328 C.ar    1  UNL1        0.0881
      6 CL        139.7302  142.8970  170.6564 Cl      1  UNL1       -0.0798
      7 C         140.8660  142.6191  168.3363 C.ar    1  UNL1        0.0509
      8 C         141.1364  141.7947  167.1127 C.ar    1  UNL1        0.1435
      9 C         140.8116  139.5993  165.7619 C.3     1  UNL1        0.0988
     10 C         143.2116  138.6813  166.1453 C.3     1  UNL1        0.0861
     11 N         142.2202  139.4059  165.2840 N.3     1  UNL1       -0.2925
     12 H         142.1648  138.8935  164.4038 H       1  UNL1        0.1236
     13 O         142.0019  142.3413  166.0163 O.3     1  UNL1       -0.4537
     14 C         141.4257  143.2922  165.0094 C.ar    1  UNL1        0.1462
     15 C         142.3315  144.1994  164.2305 C.ar    1  UNL1        0.0384
     16 C         141.7553  145.1503  163.2236 C.ar    1  UNL1        0.0154
     17 C         140.2733  145.1941  162.9957 C.ar    1  UNL1        0.0684
     18 CL        139.6972  146.1450  161.9889 Cl      1  UNL1       -0.0814
     19 C         139.3676  144.2870  163.7746 C.ar    1  UNL1        0.0712
     20 CL        137.8857  144.3309  163.5467 Cl      1  UNL1       -0.0813
     21 C         139.9438  143.3360  164.7815 C.ar    1  UNL1        0.0497
@<TRIPOS>BOND
     1    10    11    1
     2    11     9    1
     3     9     1    1
     4     1     2   ar
     5     2     3   ar
     6     3     4    1
     7     3     5   ar
     8     5     6    1
     9     5     7   ar
    10     7     8   ar
    11     8    13    1
    12    13    14    1
    13    14    15   ar
    14    15    16   ar
    15    16    17   ar
    16    17    18    1
    17    17    19   ar
    18    19    20    1
    19    19    21   ar
    20     8     1   ar
    21    21    14   ar
    22    11    12    1
@<TRIPOS>MOLECULE
*****
 21 22 0 0 0
SMALL
GASTEIGER

@<TRIPOS>ATOM
      1 C         142.4522  144.4851  163.4746 C.ar    1  UNL1        0.0305
      2 C         141.3007  145.2000  162.8321 C.ar    1  UNL1        0.0306
      3 C         139.8962  144.9011  163.2659 C.ar    1  UNL1        0.1505
      4 F         138.7446  145.6161  162.6234 F       1  UNL1       -0.2033
      5 C         139.6433  143.8874  164.3422 C.ar    1  UNL1        0.0881
      6 CL        138.2388  143.5886  164.7759 Cl      1  UNL1       -0.0798
      7 C         140.7949  143.1725  164.9846 C.ar    1  UNL1        0.0509
      8 C         142.1993  143.4713  164.5508 C.ar    1  UNL1        0.1435
      9 C         143.8567  144.7839  163.0408 C.3     1  UNL1        0.0988
     10 C         144.3468  142.9012  161.3188 C.3     1  UNL1        0.0861
     11 N         144.7384  143.6784  162.5406 N.3     1  UNL1       -0.2925
     12 H         145.6495  144.0936  162.3459 H       1  UNL1        0.1236
     13 O         143.3509  142.7564  165.1933 O.3     1  UNL1       -0.4537
     14 C         143.1067  141.8175  166.3373 C.ar    1  UNL1        0.1462
     15 C         142.8844  140.3574  166.0750 C.ar    1  UNL1        0.0384
     16 C         142.6401  139.4185  167.2190 C.ar    1  UNL1        0.0154
     17 C         142.6181  139.9396  168.6254 C.ar    1  UNL1        0.0684
     18 CL        142.3739  139.0007  169.7694 Cl      1  UNL1       -0.0814
     19 C         142.8403  141.3996  168.8878 C.ar    1  UNL1        0.0712
     20 CL        142.8183  141.9208  170.2941 Cl      1  UNL1       -0.0813
     21 C         143.0846  142.3386  167.7437 C.ar    1  UNL1        0.0497
@<TRIPOS>BOND
     1    10    11    1
     2    11     9    1
     3     9     1    1
     4     1     2   ar
     5     2     3   ar
     6     3     4    1
     7     3     5   ar
     8     5     6    1
     9     5     7   ar
    10     7     8   ar
    11     8    13    1
    12    13    14    1
    13    14    15   ar
    14    15    16   ar
    15    16    17   ar
    16    17    18    1
    17    17    19   ar
    18    19    20    1
    19    19    21   ar
    20     8     1   ar
    21    21    14   ar
    22    11    12    1
@<TRIPOS>MOLECULE
*****
 21 22 0 0 0
SMALL
GASTEIGER

@<TRIPOS>ATOM
      1 C         141.5890  140.9837  167.1213 C.ar    1  UNL1        0.0305
      2 C         142.6757  139.9518  167.1852 C.ar    1  UNL1        0.0306
      3 C         142.6104  138.7383  166.3059 C.ar    1  UNL1        0.1505
      4 F         143.6972  137.7063  166.3699 F       1  UNL1       -0.2033
      5 C         141.4583  138.5567  165.3627 C.ar    1  UNL1        0.0881
      6 CL        141.3930  137.3432  164.4834 Cl      1  UNL1       -0.0798
      7 C         140.3716  139.5886  165.2988 C.ar    1  UNL1        0.0509
      8 C         140.4370  140.8021  166.1781 C.ar    1  UNL1        0.1435
      9 C         141.6544  142.1972  168.0006 C.3     1  UNL1        0.0988
     10 C         139.8789  141.7799  169.8509 C.3     1  UNL1        0.0861
     11 N         140.4379  142.6413  168.7575 N.3     1  UNL1       -0.2925
     12 H         140.6660  143.5415  169.1793 H       1  UNL1        0.1236
     13 O         139.3502  141.8341  166.1141 O.3     1  UNL1       -0.4537
     14 C         139.3981  142.9100  165.0701 C.ar    1  UNL1        0.1462
     15 C         138.1740  143.2269  164.2629 C.ar    1  UNL1        0.0384
     16 C         138.2220  144.3028  163.2189 C.ar    1  UNL1        0.0154
     17 C         139.4938  145.0619  162.9820 C.ar    1  UNL1        0.0684
     18 CL        139.5417  146.1379  161.9380 Cl      1  UNL1       -0.0814
     19 C         140.7178  144.7451  163.7891 C.ar    1  UNL1        0.0712
     20 CL        141.9896  145.5042  163.5522 Cl      1  UNL1       -0.0813
     21 C         140.6699  143.6691  164.8332 C.ar    1  UNL1        0.0497
@<TRIPOS>BOND
     1    10    11    1
     2    11     9    1
     3     9     1    1
     4     1     2   ar
     5     2     3   ar
     6     3     4    1
     7     3     5   ar
     8     5     6    1
     9     5     7   ar
    10     7     8   ar
    11     8    13    1
    12    13    14    1
    13    14    15   ar
    14    15    16   ar
    15    16    17   ar
    16    17    18    1
    17    17    19   ar
    18    19    20    1
    19    19    21   ar
    20     8     1   ar
    21    21    14   ar
    22    11    12    1
@<TRIPOS>MOLECULE
*****
 21 22 0 0 0
SMALL
GASTEIGER

@<TRIPOS>ATOM
      1 C         141.3377  140.4266  166.8997 C.ar    1  UNL1        0.0305
      2 C         142.4336  140.2371  167.9062 C.ar    1  UNL1        0.0306
      3 C         142.6261  141.2418  169.0033 C.ar    1  UNL1        0.1505
      4 F         143.7220  141.0523  170.0099 F       1  UNL1       -0.2033
      5 C         141.7228  142.4359  169.0938 C.ar    1  UNL1        0.0881
      6 CL        141.9154  143.4405  170.1909 Cl      1  UNL1       -0.0798
      7 C         140.6270  142.6253  168.0873 C.ar    1  UNL1        0.0509
      8 C         140.4344  141.6206  166.9902 C.ar    1  UNL1        0.1435
      9 C         141.1452  139.4219  165.8026 C.3     1  UNL1        0.0988
     10 C         139.4704  137.6649  164.8762 C.3     1  UNL1        0.0861
     11 N         139.7611  139.0566  165.3546 N.3     1  UNL1       -0.2925
     12 H         139.1400  139.2321  166.1445 H       1  UNL1        0.1236
     13 O         139.3385  141.8101  165.9836 O.3     1  UNL1       -0.4537
     14 C         139.4246  142.9231  164.9817 C.ar    1  UNL1        0.1462
     15 C         138.2048  143.3356  164.2123 C.ar    1  UNL1        0.0384
     16 C         138.2908  144.4486  163.2105 C.ar    1  UNL1        0.0154
     17 C         139.5967  145.1491  162.9779 C.ar    1  UNL1        0.0684
     18 CL        139.6827  146.2621  161.9761 Cl      1  UNL1       -0.0814
     19 C         140.8164  144.7366  163.7473 C.ar    1  UNL1        0.0712
     20 CL        142.1223  145.4371  163.5147 Cl      1  UNL1       -0.0813
     21 C         140.7304  143.6236  164.7492 C.ar    1  UNL1        0.0497
@<TRIPOS>BOND
     1    10    11    1
     2    11     9    1
     3     9     1    1
     4     1     2   ar
     5     2     3   ar
     6     3     4    1
     7     3     5   ar
     8     5     6    1
     9     5     7   ar
    10     7     8   ar
    11     8    13    1
    12    13    14    1
    13    14    15   ar
    14    15    16   ar
    15    16    17   ar
    16    17    18    1
    17    17    19   ar
    18    19    20    1
    19    19    21   ar
    20     8     1   ar
    21    21    14   ar
    22    11    12    1
@<TRIPOS>MOLECULE
*****
 21 22 0 0 0
SMALL
GASTEIGER

@<TRIPOS>ATOM
      1 C         138.4195  143.2303  163.9143 C.ar    1  UNL1        0.0305
      2 C         138.5823  144.4065  162.9978 C.ar    1  UNL1        0.0306
      3 C         139.8723  145.1717  162.9814 C.ar    1  UNL1        0.1505
      4 F         140.0350  146.3480  162.0648 F       1  UNL1       -0.2033
      5 C         140.9996  144.7607  163.8815 C.ar    1  UNL1        0.0881
      6 CL        142.2896  145.5259  163.8651 Cl      1  UNL1       -0.0798
      7 C         140.8369  143.5845  164.7980 C.ar    1  UNL1        0.0509
      8 C         139.5468  142.8193  164.8144 C.ar    1  UNL1        0.1435
      9 C         137.1295  142.4651  163.9307 C.3     1  UNL1        0.0988
     10 C         137.8951  140.2528  162.8041 C.3     1  UNL1        0.0861
     11 N         136.8975  141.3648  162.9380 N.3     1  UNL1       -0.2925
     12 H         136.0058  140.9329  163.1803 H       1  UNL1        0.1236
     13 O         139.3841  141.6431  165.7310 O.3     1  UNL1       -0.4537
     14 C         140.5320  140.7046  165.9579 C.ar    1  UNL1        0.1462
     15 C         141.1502  139.9816  164.7980 C.ar    1  UNL1        0.0384
     16 C         142.2982  139.0431  165.0249 C.ar    1  UNL1        0.0154
     17 C         142.8280  138.8277  166.4116 C.ar    1  UNL1        0.0684
     18 CL        143.9759  137.8892  166.6385 Cl      1  UNL1       -0.0814
     19 C         142.2098  139.5506  167.5714 C.ar    1  UNL1        0.0712
     20 CL        142.7396  139.3352  168.9581 Cl      1  UNL1       -0.0813
     21 C         141.0618  140.4891  167.3445 C.ar    1  UNL1        0.0497
@<TRIPOS>BOND
     1    10    11    1
     2    11     9    1
     3     9     1    1
     4     1     2   ar
     5     2     3   ar
     6     3     4    1
     7     3     5   ar
     8     5     6    1
     9     5     7   ar
    10     7     8   ar
    11     8    13    1
    12    13    14    1
    13    14    15   ar
    14    15    16   ar
    15    16    17   ar
    16    17    18    1
    17    17    19   ar
    18    19    20    1
    19    19    21   ar
    20     8     1   ar
    21    21    14   ar
    22    11    12    1
@<TRIPOS>MOLECULE
*****
 21 22 0 0 0
SMALL
GASTEIGER

@<TRIPOS>ATOM
      1 C         142.5948  143.8805  164.0903 C.ar    1  UNL1        0.0305
      2 C         142.1709  145.0722  163.2841 C.ar    1  UNL1        0.0306
      3 C         140.7181  145.2988  162.9875 C.ar    1  UNL1        0.1505
      4 F         140.2943  146.4906  162.1812 F       1  UNL1       -0.2033
      5 C         139.6891  144.3337  163.4971 C.ar    1  UNL1        0.0881
      6 CL        138.2363  144.5604  163.2005 Cl      1  UNL1       -0.0798
      7 C         140.1130  143.1420  164.3034 C.ar    1  UNL1        0.0509
      8 C         141.5658  142.9154  164.6000 C.ar    1  UNL1        0.1435
      9 C         144.0476  143.6538  164.3869 C.3     1  UNL1        0.0988
     10 C         145.6726  141.8292  163.5038 C.3     1  UNL1        0.0861
     11 N         144.5910  142.2572  164.4509 N.3     1  UNL1       -0.2925
     12 H         144.9568  142.1265  165.3940 H       1  UNL1        0.1236
     13 O         141.9896  141.7235  165.4063 O.3     1  UNL1       -0.4537
     14 C         141.8821  141.7533  166.9021 C.ar    1  UNL1        0.1462
     15 C         143.0336  142.2464  167.7272 C.ar    1  UNL1        0.0384
     16 C         142.9260  142.2762  169.2230 C.ar    1  UNL1        0.0154
     17 C         141.6669  141.8127  169.8938 C.ar    1  UNL1        0.0684
     18 CL        141.5593  141.8424  171.3896 Cl      1  UNL1       -0.0814
     19 C         140.5154  141.3196  169.0687 C.ar    1  UNL1        0.0712
     20 CL        139.2563  140.8561  169.7395 Cl      1  UNL1       -0.0813
     21 C         140.6230  141.2898  167.5728 C.ar    1  UNL1        0.0497
@<TRIPOS>BOND
     1    10    11    1
     2    11     9    1
     3     9     1    1
     4     1     2   ar
     5     2     3   ar
     6     3     4    1
     7     3     5   ar
     8     5     6    1
     9     5     7   ar
    10     7     8   ar
    11     8    13    1
    12    13    14    1
    13    14    15   ar
    14    15    16   ar
    15    16    17   ar
    16    17    18    1
    17    17    19   ar
    18    19    20    1
    19    19    21   ar
    20     8     1   ar
    21    21    14   ar
    22    11    12    1
@<TRIPOS>MOLECULE
*****
 21 22 0 0 0
SMALL
GASTEIGER

@<TRIPOS>ATOM
      1 C         142.0157  143.8457  163.9912 C.ar    1  UNL1        0.0305
      2 C         142.9363  143.9666  162.8133 C.ar    1  UNL1        0.0306
      3 C         144.2006  143.1610  162.7636 C.ar    1  UNL1        0.1505
      4 F         145.1213  143.2820  161.5856 F       1  UNL1       -0.2033
      5 C         144.5443  142.2343  163.8920 C.ar    1  UNL1        0.0881
      6 CL        145.8085  141.4287  163.8424 Cl      1  UNL1       -0.0798
      7 C         143.6236  142.1134  165.0700 C.ar    1  UNL1        0.0509
      8 C         142.3593  142.9190  165.1196 C.ar    1  UNL1        0.1435
      9 C         140.7514  144.6513  164.0409 C.3     1  UNL1        0.0988
     10 C         139.8300  145.9062  161.9609 C.3     1  UNL1        0.0861
     11 N         140.6300  145.9072  163.2297 N.3     1  UNL1       -0.2925
     12 H         140.2150  146.6123  163.8389 H       1  UNL1        0.1236
     13 O         141.4386  142.7980  166.2977 O.3     1  UNL1       -0.4537
     14 C         140.5113  141.6241  166.4074 C.ar    1  UNL1        0.1462
     15 C         140.1714  141.0602  167.7552 C.ar    1  UNL1        0.0384
     16 C         139.2442  139.8863  167.8649 C.ar    1  UNL1        0.0154
     17 C         138.6567  139.2763  166.6268 C.ar    1  UNL1        0.0684
     18 CL        137.7295  138.1024  166.7366 Cl      1  UNL1       -0.0814
     19 C         138.9966  139.8401  165.2791 C.ar    1  UNL1        0.0712
     20 CL        138.4091  139.2301  164.0410 Cl      1  UNL1       -0.0813
     21 C         139.9239  141.0141  165.1693 C.ar    1  UNL1        0.0497
@<TRIPOS>BOND
     1    10    11    1
     2    11     9    1
     3     9     1    1
     4     1     2   ar
     5     2     3   ar
     6     3     4    1
     7     3     5   ar
     8     5     6    1
     9     5     7   ar
    10     7     8   ar
    11     8    13    1
    12    13    14    1
    13    14    15   ar
    14    15    16   ar
    15    16    17   ar
    16    17    18    1
    17    17    19   ar
    18    19    20    1
    19    19    21   ar
    20     8     1   ar
    21    21    14   ar
    22    11    12    1
@<TRIPOS>MOLECULE
*****
 21 22 0 0 0
SMALL
GASTEIGER

@<TRIPOS>ATOM
      1 C         139.9912  140.0599  167.2991 C.ar    1  UNL1        0.0305
      2 C         139.5112  140.0103  168.7194 C.ar    1  UNL1        0.0306
      3 C         140.5019  139.9618  169.8446 C.ar    1  UNL1        0.1505
      4 F         140.0219  139.9123  171.2649 F       1  UNL1       -0.2033
      5 C         141.9726  139.9629  169.5496 C.ar    1  UNL1        0.0881
      6 CL        142.9633  139.9144  170.6748 Cl      1  UNL1       -0.0798
      7 C         142.4525  140.0125  168.1294 C.ar    1  UNL1        0.0509
      8 C         141.4618  140.0610  167.0041 C.ar    1  UNL1        0.1435
      9 C         139.0004  140.1083  166.1739 C.3     1  UNL1        0.0988
     10 C         138.9439  137.7562  165.0720 C.3     1  UNL1        0.0861
     11 N         139.1886  139.2327  164.9707 N.3     1  UNL1       -0.2925
     12 H         138.5613  139.5862  164.2483 H       1  UNL1        0.1236
     13 O         141.9419  140.1105  165.5838 O.3     1  UNL1       -0.4537
     14 C         142.4562  141.3976  165.0105 C.ar    1  UNL1        0.1462
     15 C         143.9110  141.5404  164.6739 C.ar    1  UNL1        0.0384
     16 C         144.4253  142.8275  164.1005 C.ar    1  UNL1        0.0154
     17 C         143.4849  143.9719  163.8637 C.ar    1  UNL1        0.0684
     18 CL        143.9993  145.2590  163.2904 Cl      1  UNL1       -0.0814
     19 C         142.0302  143.8291  164.2003 C.ar    1  UNL1        0.0712
     20 CL        141.0898  144.9735  163.9635 Cl      1  UNL1       -0.0813
     21 C         141.5158  142.5420  164.7737 C.ar    1  UNL1        0.0497
@<TRIPOS>BOND
     1    10    11    1
     2    11     9    1
     3     9     1    1
     4     1     2   ar
     5     2     3   ar
     6     3     4    1
     7     3     5   ar
     8     5     6    1
     9     5     7   ar
    10     7     8   ar
    11     8    13    1
    12    13    14    1
    13    14    15   ar
    14    15    16   ar
    15    16    17   ar
    16    17    18    1
    17    17    19   ar
    18    19    20    1
    19    19    21   ar
    20     8     1   ar
    21    21    14   ar
    22    11    12    1
