@<TRIPOS>MOLECULE
*****
 35 38 0 0 0
SMALL
GASTEIGER

@<TRIPOS>ATOM
      1 C         140.6744  141.1650  166.8645 C.2     1  UNL1       -0.0040
      2 C         142.1369  140.8529  166.9820 C.2     1  UNL1       -0.0221
      3 C         139.7057  140.6064  167.8643 C.ar    1  UNL1       -0.0003
      4 C         138.7747  139.4989  167.4687 C.ar    1  UNL1        0.0005
      5 C         137.8059  138.9403  168.4686 C.ar    1  UNL1        0.0067
      6 C         137.7683  139.4893  169.8639 C.ar    1  UNL1        0.0346
      7 BR        136.7996  138.9308  170.8637 Br      1  UNL1       -0.0490
      8 C         138.6993  140.5969  170.2595 C.ar    1  UNL1        0.0067
      9 C         139.6680  141.1554  169.2598 C.ar    1  UNL1        0.0005
     10 C         139.1932  143.7766  163.5127 C.ar    1  UNL1        0.1386
     11 C         139.4298  142.3145  163.2757 C.ar    1  UNL1        0.0369
     12 C         139.9235  141.4440  164.3930 C.ar    1  UNL1        0.0031
     13 C         140.1807  142.0356  165.7472 C.ar    1  UNL1       -0.0001
     14 C         139.9441  143.4977  165.9842 C.ar    1  UNL1        0.0031
     15 C         139.4503  144.3682  164.8669 C.ar    1  UNL1        0.0369
     16 O         138.6994  144.6472  162.3953 O.3     1  UNL1       -0.4754
     17 C         139.5388  145.7913  161.9090 C.3     1  UNL1        0.2068
     18 C         140.4562  145.6034  160.7371 C.3     1  UNL1        0.0633
     19 C         139.9379  143.3461  158.4381 C.3     1  UNL1        0.0896
     20 N         140.9755  143.2812  159.5194 N.3     1  UNL1       -0.2727
     21 C         141.9571  142.1674  159.7337 C.3     1  UNL1        0.0721
     22 C         142.8020  142.5167  160.9229 C.3     1  UNL1        0.0187
     23 C         142.3426  143.8463  161.4435 C.3     1  UNL1        0.0175
     24 C         141.2137  144.3188  160.5761 C.3     1  UNL1        0.0613
     25 C         143.1056  141.4115  165.9821 C.ar    1  UNL1       -0.0040
     26 C         143.5934  142.8235  166.1184 C.ar    1  UNL1       -0.0003
     27 C         144.5620  143.3821  165.1186 C.ar    1  UNL1       -0.0000
     28 C         145.0430  142.5287  163.9826 C.ar    1  UNL1       -0.0000
     29 C         144.5552  141.1168  163.8464 C.ar    1  UNL1       -0.0000
     30 C         143.5865  140.5582  164.8462 C.ar    1  UNL1       -0.0003
     31 C         142.6307  139.9824  168.0992 C.3     1  UNL1        0.0289
     32 C         143.0953  140.6021  169.3838 C.3     1  UNL1        0.0364
     33 C         142.8594  139.8955  170.6858 C.3     1  UNL1        0.1375
     34 O         142.2435  140.6323  171.8381 O.3     1  UNL1       -0.3820
     35 H         142.8495  141.3277  172.1383 H       1  UNL1        0.2104
@<TRIPOS>BOND
     1    19    20    1
     2    20    21    1
     3    21    22    1
     4    22    23    1
     5    23    24    1
     6    24    18    1
     7    18    17    1
     8    17    16    1
     9    16    10    1
    10    10    11   ar
    11    11    12   ar
    12    12    13   ar
    13    13     1    1
    14     1     2    2
    15     2    31    1
    16    31    32    1
    17    32    33    1
    18    33    34    1
    19     2    25    1
    20    25    26   ar
    21    26    27   ar
    22    27    28   ar
    23    28    29   ar
    24    29    30   ar
    25     1     3    1
    26     3     4   ar
    27     4     5   ar
    28     5     6   ar
    29     6     7    1
    30     6     8   ar
    31     8     9   ar
    32    13    14   ar
    33    14    15   ar
    34    24    20    1
    35    15    10   ar
    36    30    25   ar
    37     9     3   ar
    38    34    35    1
@<TRIPOS>MOLECULE
*****
 35 38 0 0 0
SMALL
GASTEIGER

@<TRIPOS>ATOM
      1 C         140.3336  140.4339  165.0783 C.2     1  UNL1       -0.0040
      2 C         139.8587  139.2413  164.3024 C.2     1  UNL1       -0.0221
      3 C         140.8072  140.2690  166.4920 C.ar    1  UNL1       -0.0003
      4 C         139.8886  140.5910  167.6332 C.ar    1  UNL1        0.0005
      5 C         140.3623  140.4260  169.0469 C.ar    1  UNL1        0.0067
      6 C         141.7546  139.9390  169.3193 C.ar    1  UNL1        0.0346
      7 BR        142.2282  139.7740  170.7329 Br      1  UNL1       -0.0490
      8 C         142.6732  139.6169  168.1781 C.ar    1  UNL1        0.0067
      9 C         142.1996  139.7819  166.7645 C.ar    1  UNL1        0.0005
     10 C         140.3375  144.5069  163.1649 C.ar    1  UNL1        0.1386
     11 C         141.5650  143.6472  163.1014 C.ar    1  UNL1        0.0369
     12 C         141.5637  142.2896  163.7392 C.ar    1  UNL1        0.0031
     13 C         140.3349  141.7916  164.4405 C.ar    1  UNL1       -0.0001
     14 C         139.1073  142.6512  164.5041 C.ar    1  UNL1        0.0031
     15 C         139.1086  144.0089  163.8663 C.ar    1  UNL1        0.0369
     16 O         140.3387  145.8646  162.5271 O.3     1  UNL1       -0.4754
     17 C         139.9615  146.0152  161.0832 C.3     1  UNL1        0.2068
     18 C         140.7843  145.3501  160.0197 C.3     1  UNL1        0.0633
     19 C         140.3379  146.1566  156.8892 C.3     1  UNL1        0.0896
     20 N         139.9132  144.8726  157.5382 N.3     1  UNL1       -0.2727
     21 C         139.2087  143.7340  156.8621 C.3     1  UNL1        0.0721
     22 C         138.9784  142.6596  157.8832 C.3     1  UNL1        0.0187
     23 C         139.5406  143.1342  159.1903 C.3     1  UNL1        0.0175
     24 C         140.1183  144.5020  158.9771 C.3     1  UNL1        0.0613
     25 C         139.3850  139.4063  162.8887 C.ar    1  UNL1       -0.0040
     26 C         137.9431  139.7132  162.6119 C.ar    1  UNL1       -0.0003
     27 C         137.4694  139.8782  161.1983 C.ar    1  UNL1       -0.0000
     28 C         138.4377  139.7364  160.0615 C.ar    1  UNL1       -0.0000
     29 C         139.8797  139.4295  160.3384 C.ar    1  UNL1       -0.0000
     30 C         140.3533  139.2645  161.7520 C.ar    1  UNL1       -0.0003
     31 C         139.8574  137.8836  164.9402 C.3     1  UNL1        0.0289
     32 C         138.5772  137.3009  165.4610 C.3     1  UNL1        0.0364
     33 C         137.8262  137.9989  166.5560 C.3     1  UNL1        0.1375
     34 O         137.0146  137.2026  167.5344 O.3     1  UNL1       -0.3820
     35 H         136.2732  136.7812  167.0722 H       1  UNL1        0.2104
@<TRIPOS>BOND
     1    19    20    1
     2    20    21    1
     3    21    22    1
     4    22    23    1
     5    23    24    1
     6    24    18    1
     7    18    17    1
     8    17    16    1
     9    16    10    1
    10    10    11   ar
    11    11    12   ar
    12    12    13   ar
    13    13     1    1
    14     1     2    2
    15     2    31    1
    16    31    32    1
    17    32    33    1
    18    33    34    1
    19     2    25    1
    20    25    26   ar
    21    26    27   ar
    22    27    28   ar
    23    28    29   ar
    24    29    30   ar
    25     1     3    1
    26     3     4   ar
    27     4     5   ar
    28     5     6   ar
    29     6     7    1
    30     6     8   ar
    31     8     9   ar
    32    13    14   ar
    33    14    15   ar
    34    24    20    1
    35    15    10   ar
    36    30    25   ar
    37     9     3   ar
    38    34    35    1
@<TRIPOS>MOLECULE
*****
 35 38 0 0 0
SMALL
GASTEIGER

@<TRIPOS>ATOM
      1 C         140.7832  141.4873  165.3214 C.2     1  UNL1       -0.0040
      2 C         140.0318  140.1980  165.1691 C.2     1  UNL1       -0.0221
      3 C         141.2707  141.9161  166.6735 C.ar    1  UNL1       -0.0003
      4 C         142.6930  141.6586  167.0744 C.ar    1  UNL1        0.0005
      5 C         143.1805  142.0875  168.4266 C.ar    1  UNL1        0.0067
      6 C         142.2457  142.7738  169.3779 C.ar    1  UNL1        0.0346
      7 BR        142.7332  143.2026  170.7301 Br      1  UNL1       -0.0490
      8 C         140.8234  143.0313  168.9771 C.ar    1  UNL1        0.0067
      9 C         140.3358  142.6025  167.6249 C.ar    1  UNL1        0.0005
     10 C         141.5747  144.0686  161.7213 C.ar    1  UNL1        0.1386
     11 C         142.4795  142.9123  162.0286 C.ar    1  UNL1        0.0369
     12 C         142.2156  142.0519  163.2286 C.ar    1  UNL1        0.0031
     13 C         141.0470  142.3477  164.1213 C.ar    1  UNL1       -0.0001
     14 C         140.1423  143.5040  163.8140 C.ar    1  UNL1        0.0031
     15 C         140.4061  144.3644  162.6140 C.ar    1  UNL1        0.0369
     16 O         141.8386  144.9290  160.5213 O.3     1  UNL1       -0.4754
     17 C         140.7184  145.2754  159.5858 C.3     1  UNL1        0.2068
     18 C         140.0883  144.2070  158.7421 C.3     1  UNL1        0.0633
     19 C         142.8009  143.4937  157.0739 C.3     1  UNL1        0.0896
     20 N         141.9778  142.5276  157.8734 N.3     1  UNL1       -0.2727
     21 C         142.2570  141.0640  158.0464 C.3     1  UNL1        0.0721
     22 C         141.1827  140.4874  158.9202 C.3     1  UNL1        0.0187
     23 C         140.2396  141.5946  159.2871 C.3     1  UNL1        0.0175
     24 C         140.7309  142.8555  158.6402 C.3     1  UNL1        0.0613
     25 C         139.5443  139.7691  163.8169 C.ar    1  UNL1       -0.0040
     26 C         140.3413  138.7886  163.0086 C.ar    1  UNL1       -0.0003
     27 C         139.8538  138.3598  161.6564 C.ar    1  UNL1       -0.0000
     28 C         138.5694  138.9115  161.1125 C.ar    1  UNL1       -0.0000
     29 C         137.7724  139.8920  161.9208 C.ar    1  UNL1       -0.0000
     30 C         138.2599  140.3209  163.2730 C.ar    1  UNL1       -0.0003
     31 C         139.7680  139.3375  166.3691 C.3     1  UNL1        0.0289
     32 C         138.3687  139.1804  166.8863 C.3     1  UNL1        0.0364
     33 C         137.6511  137.8733  166.7229 C.3     1  UNL1        0.1375
     34 O         136.7634  137.3630  167.8191 O.3     1  UNL1       -0.3820
     35 H         137.3002  137.1569  168.6003 H       1  UNL1        0.2104
@<TRIPOS>BOND
     1    19    20    1
     2    20    21    1
     3    21    22    1
     4    22    23    1
     5    23    24    1
     6    24    18    1
     7    18    17    1
     8    17    16    1
     9    16    10    1
    10    10    11   ar
    11    11    12   ar
    12    12    13   ar
    13    13     1    1
    14     1     2    2
    15     2    31    1
    16    31    32    1
    17    32    33    1
    18    33    34    1
    19     2    25    1
    20    25    26   ar
    21    26    27   ar
    22    27    28   ar
    23    28    29   ar
    24    29    30   ar
    25     1     3    1
    26     3     4   ar
    27     4     5   ar
    28     5     6   ar
    29     6     7    1
    30     6     8   ar
    31     8     9   ar
    32    13    14   ar
    33    14    15   ar
    34    24    20    1
    35    15    10   ar
    36    30    25   ar
    37     9     3   ar
    38    34    35    1
@<TRIPOS>MOLECULE
*****
 35 38 0 0 0
SMALL
GASTEIGER

@<TRIPOS>ATOM
      1 C         140.6177  141.7291  165.5476 C.2     1  UNL1       -0.0040
      2 C         139.7621  140.5034  165.4231 C.2     1  UNL1       -0.0221
      3 C         141.1921  142.1107  166.8797 C.ar    1  UNL1       -0.0003
      4 C         140.3405  142.8253  167.8867 C.ar    1  UNL1        0.0005
      5 C         140.9150  143.2069  169.2189 C.ar    1  UNL1        0.0067
      6 C         142.3410  142.8738  169.5438 C.ar    1  UNL1        0.0346
      7 BR        142.9154  143.2554  170.8759 Br      1  UNL1       -0.0490
      8 C         143.1926  142.1592  168.5368 C.ar    1  UNL1        0.0067
      9 C         142.6181  141.7777  167.2047 C.ar    1  UNL1        0.0005
     10 C         141.4611  144.2617  161.9248 C.ar    1  UNL1        0.1386
     11 C         140.3997  144.6773  162.8998 C.ar    1  UNL1        0.0369
     12 C         140.1186  143.8331  164.1074 C.ar    1  UNL1        0.0031
     13 C         140.8989  142.5733  164.3400 C.ar    1  UNL1       -0.0001
     14 C         141.9603  142.1577  163.3650 C.ar    1  UNL1        0.0031
     15 C         142.2414  143.0019  162.1574 C.ar    1  UNL1        0.0369
     16 O         141.7423  145.1059  160.7172 O.3     1  UNL1       -0.4754
     17 C         141.4673  144.5668  159.3447 C.3     1  UNL1        0.2068
     18 C         140.1220  143.9869  159.0223 C.3     1  UNL1        0.0633
     19 C         137.7018  142.5621  157.3602 C.3     1  UNL1        0.0896
     20 N         138.8713  141.8631  157.9876 N.3     1  UNL1       -0.2727
     21 C         139.1337  140.3865  157.9611 C.3     1  UNL1        0.0721
     22 C         140.4084  140.1288  158.7088 C.3     1  UNL1        0.0187
     23 C         140.9337  141.4461  159.1973 C.3     1  UNL1        0.0175
     24 C         139.9837  142.5180  158.7516 C.3     1  UNL1        0.0613
     25 C         139.1877  140.1218  164.0910 C.ar    1  UNL1       -0.0040
     26 C         138.0091  140.8689  163.5407 C.ar    1  UNL1       -0.0003
     27 C         137.4347  140.4874  162.2086 C.ar    1  UNL1       -0.0000
     28 C         138.0388  139.3588  161.4268 C.ar    1  UNL1       -0.0000
     29 C         139.2174  138.6117  161.9771 C.ar    1  UNL1       -0.0000
     30 C         139.7918  138.9932  163.3092 C.ar    1  UNL1       -0.0003
     31 C         139.4809  139.6592  166.6307 C.3     1  UNL1        0.0289
     32 C         138.1129  139.0802  166.8390 C.3     1  UNL1        0.0364
     33 C         137.8494  137.6410  166.5084 C.3     1  UNL1        0.1375
     34 O         137.0920  136.7766  167.4724 O.3     1  UNL1       -0.3820
     35 H         137.6122  136.6642  168.2834 H       1  UNL1        0.2104
@<TRIPOS>BOND
     1    19    20    1
     2    20    21    1
     3    21    22    1
     4    22    23    1
     5    23    24    1
     6    24    18    1
     7    18    17    1
     8    17    16    1
     9    16    10    1
    10    10    11   ar
    11    11    12   ar
    12    12    13   ar
    13    13     1    1
    14     1     2    2
    15     2    31    1
    16    31    32    1
    17    32    33    1
    18    33    34    1
    19     2    25    1
    20    25    26   ar
    21    26    27   ar
    22    27    28   ar
    23    28    29   ar
    24    29    30   ar
    25     1     3    1
    26     3     4   ar
    27     4     5   ar
    28     5     6   ar
    29     6     7    1
    30     6     8   ar
    31     8     9   ar
    32    13    14   ar
    33    14    15   ar
    34    24    20    1
    35    15    10   ar
    36    30    25   ar
    37     9     3   ar
    38    34    35    1
@<TRIPOS>MOLECULE
*****
 35 38 0 0 0
SMALL
GASTEIGER

@<TRIPOS>ATOM
      1 C         140.6884  141.4326  164.9261 C.2     1  UNL1       -0.0040
      2 C         139.9337  140.1522  164.7238 C.2     1  UNL1       -0.0221
      3 C         141.1449  141.8250  166.3000 C.ar    1  UNL1       -0.0003
      4 C         140.2095  142.5482  167.2231 C.ar    1  UNL1        0.0005
      5 C         140.6661  142.9407  168.5970 C.ar    1  UNL1        0.0067
      6 C         142.0580  142.6099  169.0478 C.ar    1  UNL1        0.0346
      7 BR        142.5145  143.0023  170.4216 Br      1  UNL1       -0.0490
      8 C         142.9933  141.8867  168.1247 C.ar    1  UNL1        0.0067
      9 C         142.5368  141.4942  166.7508 C.ar    1  UNL1        0.0005
     10 C         141.5830  144.0965  161.4114 C.ar    1  UNL1        0.1386
     11 C         142.4983  142.9542  161.7388 C.ar    1  UNL1        0.0369
     12 C         142.2001  142.0662  162.9103 C.ar    1  UNL1        0.0031
     13 C         140.9866  142.3206  163.7545 C.ar    1  UNL1       -0.0001
     14 C         140.0712  143.4629  163.4271 C.ar    1  UNL1        0.0031
     15 C         140.3695  144.3509  162.2556 C.ar    1  UNL1        0.0369
     16 O         141.8812  144.9845  160.2398 O.3     1  UNL1       -0.4754
     17 C         141.7148  144.4642  158.8428 C.3     1  UNL1        0.2068
     18 C         140.4586  144.7580  158.0776 C.3     1  UNL1        0.0633
     19 C         138.5712  144.3522  155.4465 C.3     1  UNL1        0.0896
     20 N         138.5592  143.4992  156.6802 N.3     1  UNL1       -0.2727
     21 C         137.6775  142.3098  156.9212 C.3     1  UNL1        0.0721
     22 C         138.0001  141.7613  158.2796 C.3     1  UNL1        0.0187
     23 C         139.0812  142.6117  158.8781 C.3     1  UNL1        0.0175
     24 C         139.4267  143.6857  157.8896 C.3     1  UNL1        0.0613
     25 C         139.4772  139.7598  163.3498 C.ar    1  UNL1       -0.0040
     26 C         140.3317  138.8640  162.5029 C.ar    1  UNL1       -0.0003
     27 C         139.8753  138.4715  161.1290 C.ar    1  UNL1       -0.0000
     28 C         138.5643  138.9749  160.6020 C.ar    1  UNL1       -0.0000
     29 C         137.7097  139.8707  161.4489 C.ar    1  UNL1       -0.0000
     30 C         138.1661  140.2631  162.8228 C.ar    1  UNL1       -0.0003
     31 C         139.6355  139.2642  165.8953 C.3     1  UNL1        0.0289
     32 C         138.2201  139.0824  166.3575 C.3     1  UNL1        0.0364
     33 C         137.7143  137.7135  166.7043 C.3     1  UNL1        0.1375
     34 O         136.5805  137.5561  167.6736 O.3     1  UNL1       -0.3820
     35 H         136.8634  137.8522  168.5530 H       1  UNL1        0.2104
@<TRIPOS>BOND
     1    19    20    1
     2    20    21    1
     3    21    22    1
     4    22    23    1
     5    23    24    1
     6    24    18    1
     7    18    17    1
     8    17    16    1
     9    16    10    1
    10    10    11   ar
    11    11    12   ar
    12    12    13   ar
    13    13     1    1
    14     1     2    2
    15     2    31    1
    16    31    32    1
    17    32    33    1
    18    33    34    1
    19     2    25    1
    20    25    26   ar
    21    26    27   ar
    22    27    28   ar
    23    28    29   ar
    24    29    30   ar
    25     1     3    1
    26     3     4   ar
    27     4     5   ar
    28     5     6   ar
    29     6     7    1
    30     6     8   ar
    31     8     9   ar
    32    13    14   ar
    33    14    15   ar
    34    24    20    1
    35    15    10   ar
    36    30    25   ar
    37     9     3   ar
    38    34    35    1
@<TRIPOS>MOLECULE
*****
 35 38 0 0 0
SMALL
GASTEIGER

@<TRIPOS>ATOM
      1 C         141.7754  142.2379  161.3025 C.2     1  UNL1       -0.0040
      2 C         140.5881  143.1446  161.1683 C.2     1  UNL1       -0.0221
      3 C         142.6398  141.9524  160.1103 C.ar    1  UNL1       -0.0003
      4 C         142.3543  140.7608  159.2451 C.ar    1  UNL1        0.0005
      5 C         143.2187  140.4753  158.0528 C.ar    1  UNL1        0.0067
      6 C         144.3685  141.3814  157.7259 C.ar    1  UNL1        0.0346
      7 BR        145.2328  141.0960  156.5337 Br      1  UNL1       -0.0490
      8 C         144.6540  142.5730  158.5912 C.ar    1  UNL1        0.0067
      9 C         143.7896  142.8585  159.7834 C.ar    1  UNL1        0.0005
     10 C         142.7443  140.3741  165.2822 C.ar    1  UNL1        0.1386
     11 C         143.1987  141.7708  164.9776 C.ar    1  UNL1        0.0369
     12 C         142.8757  142.3920  163.6511 C.ar    1  UNL1        0.0031
     13 C         142.0984  141.6165  162.6291 C.ar    1  UNL1       -0.0001
     14 C         141.6441  140.2199  162.9337 C.ar    1  UNL1        0.0031
     15 C         141.9670  139.5986  164.2602 C.ar    1  UNL1        0.0369
     16 O         143.0673  139.7528  166.6088 O.3     1  UNL1       -0.4754
     17 C         141.9763  139.5117  167.6095 C.3     1  UNL1        0.2068
     18 C         140.7236  140.3357  167.5665 C.3     1  UNL1        0.0633
     19 C         140.0495  140.0093  170.7428 C.3     1  UNL1        0.0896
     20 N         140.2182  141.3049  170.0059 N.3     1  UNL1       -0.2727
     21 C         140.1068  142.6778  170.5996 C.3     1  UNL1        0.0721
     22 C         140.3477  143.6764  169.5064 C.3     1  UNL1        0.0187
     23 C         140.6081  142.9206  168.2372 C.3     1  UNL1        0.0175
     24 C         140.5281  141.4549  168.5459 C.3     1  UNL1        0.0613
     25 C         139.7238  143.4301  162.3606 C.ar    1  UNL1       -0.0040
     26 C         138.5498  142.5473  162.6644 C.ar    1  UNL1       -0.0003
     27 C         137.6854  142.8327  163.8566 C.ar    1  UNL1       -0.0000
     28 C         137.9951  144.0009  164.7450 C.ar    1  UNL1       -0.0000
     29 C         139.1691  144.8838  164.4411 C.ar    1  UNL1       -0.0000
     30 C         140.0335  144.5984  163.2489 C.ar    1  UNL1       -0.0003
     31 C         140.2652  143.7659  159.8418 C.3     1  UNL1        0.0289
     32 C         140.7578  145.1457  159.5200 C.3     1  UNL1        0.0364
     33 C         141.2392  145.4664  158.1359 C.3     1  UNL1        0.1375
     34 O         142.6250  146.0019  157.9292 O.3     1  UNL1       -0.3820
     35 H         142.6956  146.8809  158.3333 H       1  UNL1        0.2104
@<TRIPOS>BOND
     1    19    20    1
     2    20    21    1
     3    21    22    1
     4    22    23    1
     5    23    24    1
     6    24    18    1
     7    18    17    1
     8    17    16    1
     9    16    10    1
    10    10    11   ar
    11    11    12   ar
    12    12    13   ar
    13    13     1    1
    14     1     2    2
    15     2    31    1
    16    31    32    1
    17    32    33    1
    18    33    34    1
    19     2    25    1
    20    25    26   ar
    21    26    27   ar
    22    27    28   ar
    23    28    29   ar
    24    29    30   ar
    25     1     3    1
    26     3     4   ar
    27     4     5   ar
    28     5     6   ar
    29     6     7    1
    30     6     8   ar
    31     8     9   ar
    32    13    14   ar
    33    14    15   ar
    34    24    20    1
    35    15    10   ar
    36    30    25   ar
    37     9     3   ar
    38    34    35    1
@<TRIPOS>MOLECULE
*****
 35 38 0 0 0
SMALL
GASTEIGER

@<TRIPOS>ATOM
      1 C         140.9145  141.2116  164.8307 C.2     1  UNL1       -0.0040
      2 C         140.8468  139.7489  164.5055 C.2     1  UNL1       -0.0221
      3 C         141.3294  141.6568  166.2016 C.ar    1  UNL1       -0.0003
      4 C         140.2953  141.8617  167.2687 C.ar    1  UNL1        0.0005
      5 C         140.7104  142.3069  168.6397 C.ar    1  UNL1        0.0067
      6 C         142.1594  142.5471  168.9436 C.ar    1  UNL1        0.0346
      7 BR        142.5744  142.9923  170.3146 Br      1  UNL1       -0.0490
      8 C         143.1936  142.3423  167.8765 C.ar    1  UNL1        0.0067
      9 C         142.7786  141.8971  166.5056 C.ar    1  UNL1        0.0005
     10 C         139.8726  144.2644  161.6930 C.ar    1  UNL1        0.1386
     11 C         138.7828  143.5655  162.4505 C.ar    1  UNL1        0.0369
     12 C         139.1301  142.5480  163.4964 C.ar    1  UNL1        0.0031
     13 C         140.5672  142.2293  163.7847 C.ar    1  UNL1       -0.0001
     14 C         141.6570  142.9282  163.0273 C.ar    1  UNL1        0.0031
     15 C         141.3097  143.9458  161.9814 C.ar    1  UNL1        0.0369
     16 O         139.5253  145.2821  160.6471 O.3     1  UNL1       -0.4754
     17 C         140.3698  145.4083  159.4139 C.3     1  UNL1        0.2068
     18 C         140.6758  144.1947  158.5869 C.3     1  UNL1        0.0633
     19 C         138.6402  144.2344  156.0365 C.3     1  UNL1        0.0896
     20 N         138.6633  143.2082  157.1302 N.3     1  UNL1       -0.2727
     21 C         137.7549  142.0200  157.2437 C.3     1  UNL1        0.0721
     22 C         138.1291  141.2674  158.4862 C.3     1  UNL1        0.0187
     23 C         139.2688  141.9905  159.1405 C.3     1  UNL1        0.0175
     24 C         139.5990  143.1899  158.3026 C.3     1  UNL1        0.0613
     25 C         140.4318  139.3037  163.1345 C.ar    1  UNL1       -0.0040
     26 C         139.0230  138.8519  162.8870 C.ar    1  UNL1       -0.0003
     27 C         138.6080  138.4068  161.5161 C.ar    1  UNL1       -0.0000
     28 C         139.6017  138.4135  160.3926 C.ar    1  UNL1       -0.0000
     29 C         141.0105  138.8653  160.6400 C.ar    1  UNL1       -0.0000
     30 C         141.4255  139.3104  162.0110 C.ar    1  UNL1       -0.0003
     31 C         141.1940  138.7313  165.5514 C.3     1  UNL1        0.0289
     32 C         142.4776  137.9615  165.4519 C.3     1  UNL1        0.0364
     33 C         143.6476  138.3400  166.3110 C.3     1  UNL1        0.1375
     34 O         144.4286  137.2770  167.0253 O.3     1  UNL1       -0.3820
     35 H         143.8656  136.8564  167.6938 H       1  UNL1        0.2104
@<TRIPOS>BOND
     1    19    20    1
     2    20    21    1
     3    21    22    1
     4    22    23    1
     5    23    24    1
     6    24    18    1
     7    18    17    1
     8    17    16    1
     9    16    10    1
    10    10    11   ar
    11    11    12   ar
    12    12    13   ar
    13    13     1    1
    14     1     2    2
    15     2    31    1
    16    31    32    1
    17    32    33    1
    18    33    34    1
    19     2    25    1
    20    25    26   ar
    21    26    27   ar
    22    27    28   ar
    23    28    29   ar
    24    29    30   ar
    25     1     3    1
    26     3     4   ar
    27     4     5   ar
    28     5     6   ar
    29     6     7    1
    30     6     8   ar
    31     8     9   ar
    32    13    14   ar
    33    14    15   ar
    34    24    20    1
    35    15    10   ar
    36    30    25   ar
    37     9     3   ar
    38    34    35    1
@<TRIPOS>MOLECULE
*****
 35 38 0 0 0
SMALL
GASTEIGER

@<TRIPOS>ATOM
      1 C         141.1351  141.1944  165.7552 C.2     1  UNL1       -0.0040
      2 C         140.2478  139.9865  165.6965 C.2     1  UNL1       -0.0221
      3 C         141.5408  141.7632  167.0825 C.ar    1  UNL1       -0.0003
      4 C         142.9138  141.4966  167.6247 C.ar    1  UNL1        0.0005
      5 C         143.3194  142.0655  168.9521 C.ar    1  UNL1        0.0067
      6 C         142.3522  142.9009  169.7372 C.ar    1  UNL1        0.0346
      7 BR        142.7579  143.4697  171.0645 Br      1  UNL1       -0.0490
      8 C         140.9793  143.1675  169.1950 C.ar    1  UNL1        0.0067
      9 C         140.5736  142.5987  167.8677 C.ar    1  UNL1        0.0005
     10 C         142.5801  143.1118  161.9492 C.ar    1  UNL1        0.1386
     11 C         141.9719  143.9555  163.0301 C.ar    1  UNL1        0.0369
     12 C         141.4903  143.3164  164.2987 C.ar    1  UNL1        0.0031
     13 C         141.6168  141.8336  164.4865 C.ar    1  UNL1       -0.0001
     14 C         142.2250  140.9899  163.4056 C.ar    1  UNL1        0.0031
     15 C         142.7066  141.6290  162.1370 C.ar    1  UNL1        0.0369
     16 O         143.0618  143.7510  160.6805 O.3     1  UNL1       -0.4754
     17 C         142.1971  143.7302  159.4550 C.3     1  UNL1        0.2068
     18 C         140.8917  144.4692  159.4455 C.3     1  UNL1        0.0633
     19 C         139.6290  146.4578  161.7040 C.3     1  UNL1        0.0896
     20 N         139.2409  145.0276  161.4723 N.3     1  UNL1       -0.2727
     21 C         138.2042  144.2602  162.2381 C.3     1  UNL1        0.0721
     22 C         138.1439  142.8719  161.6733 C.3     1  UNL1        0.0187
     23 C         139.1433  142.7813  160.5584 C.3     1  UNL1        0.0175
     24 C         139.8213  144.1135  160.4342 C.3     1  UNL1        0.0613
     25 C         139.8421  139.4177  164.3691 C.ar    1  UNL1       -0.0040
     26 C         140.6256  138.2900  163.7653 C.ar    1  UNL1       -0.0003
     27 C         140.2199  137.7212  162.4380 C.ar    1  UNL1       -0.0000
     28 C         139.0308  138.2801  161.7144 C.ar    1  UNL1       -0.0000
     29 C         138.2473  139.4077  162.3182 C.ar    1  UNL1       -0.0000
     30 C         138.6529  139.9765  163.6455 C.ar    1  UNL1       -0.0003
     31 C         139.7661  139.3474  166.9651 C.3     1  UNL1        0.0289
     32 C         138.2967  139.2770  167.2586 C.3     1  UNL1        0.0364
     33 C         137.5242  138.0348  166.9264 C.3     1  UNL1        0.1375
     34 O         136.6844  137.3705  167.9768 O.3     1  UNL1       -0.3820
     35 H         137.2582  137.0224  168.6771 H       1  UNL1        0.2104
@<TRIPOS>BOND
     1    19    20    1
     2    20    21    1
     3    21    22    1
     4    22    23    1
     5    23    24    1
     6    24    18    1
     7    18    17    1
     8    17    16    1
     9    16    10    1
    10    10    11   ar
    11    11    12   ar
    12    12    13   ar
    13    13     1    1
    14     1     2    2
    15     2    31    1
    16    31    32    1
    17    32    33    1
    18    33    34    1
    19     2    25    1
    20    25    26   ar
    21    26    27   ar
    22    27    28   ar
    23    28    29   ar
    24    29    30   ar
    25     1     3    1
    26     3     4   ar
    27     4     5   ar
    28     5     6   ar
    29     6     7    1
    30     6     8   ar
    31     8     9   ar
    32    13    14   ar
    33    14    15   ar
    34    24    20    1
    35    15    10   ar
    36    30    25   ar
    37     9     3   ar
    38    34    35    1
@<TRIPOS>MOLECULE
*****
 35 38 0 0 0
SMALL
GASTEIGER

@<TRIPOS>ATOM
      1 C         141.8704  139.1088  160.7305 C.2     1  UNL1       -0.0040
      2 C         142.9199  140.1675  160.8971 C.2     1  UNL1       -0.0221
      3 C         141.6448  138.4814  159.3869 C.ar    1  UNL1       -0.0003
      4 C         140.3490  138.7018  158.6642 C.ar    1  UNL1        0.0005
      5 C         140.1234  138.0743  157.3205 C.ar    1  UNL1        0.0067
      6 C         141.1936  137.2264  156.6996 C.ar    1  UNL1        0.0346
      7 BR        140.9679  136.5989  155.3560 Br      1  UNL1       -0.0490
      8 C         142.4894  137.0059  157.4222 C.ar    1  UNL1        0.0067
      9 C         142.7150  137.6333  158.7658 C.ar    1  UNL1        0.0005
     10 C         139.3989  137.8153  164.2615 C.ar    1  UNL1        0.1386
     11 C         138.8387  138.7935  163.2720 C.ar    1  UNL1        0.0369
     12 C         139.6626  139.2247  162.0950 C.ar    1  UNL1        0.0031
     13 C         141.0466  138.6776  161.9075 C.ar    1  UNL1       -0.0001
     14 C         141.6068  137.6993  162.8970 C.ar    1  UNL1        0.0031
     15 C         140.7829  137.2681  164.0740 C.ar    1  UNL1        0.0369
     16 O         138.5751  137.3840  165.4385 O.3     1  UNL1       -0.4754
     17 C         138.1514  138.3907  166.4666 C.3     1  UNL1        0.2068
     18 C         138.8617  139.7084  166.5634 C.3     1  UNL1        0.0633
     19 C         139.1611  140.3880  169.7411 C.3     1  UNL1        0.0896
     20 N         140.2872  140.1243  168.7860 N.3     1  UNL1       -0.2727
     21 C         141.7487  140.1268  169.1238 C.3     1  UNL1        0.0721
     22 C         142.5143  139.8159  167.8719 C.3     1  UNL1        0.0187
     23 C         141.5260  139.6213  166.7604 C.3     1  UNL1        0.0175
     24 C         140.1496  139.8119  167.3253 C.3     1  UNL1        0.0613
     25 C         143.1455  140.7950  162.2408 C.ar    1  UNL1       -0.0040
     26 C         142.2322  141.8826  162.7235 C.ar    1  UNL1       -0.0003
     27 C         142.4578  142.5101  164.0671 C.ar    1  UNL1       -0.0000
     28 C         143.5966  142.0500  164.9280 C.ar    1  UNL1       -0.0000
     29 C         144.5099  140.9623  164.4453 C.ar    1  UNL1       -0.0000
     30 C         144.2844  140.3349  163.1017 C.ar    1  UNL1       -0.0003
     31 C         143.7437  140.5988  159.7201 C.3     1  UNL1        0.0289
     32 C         144.0010  142.0567  159.4786 C.3     1  UNL1        0.0364
     33 C         142.8569  142.9820  159.1871 C.3     1  UNL1        0.1375
     34 O         142.6560  144.2122  160.0215 O.3     1  UNL1       -0.3820
     35 H         142.4291  143.9541  160.9286 H       1  UNL1        0.2104
@<TRIPOS>BOND
     1    19    20    1
     2    20    21    1
     3    21    22    1
     4    22    23    1
     5    23    24    1
     6    24    18    1
     7    18    17    1
     8    17    16    1
     9    16    10    1
    10    10    11   ar
    11    11    12   ar
    12    12    13   ar
    13    13     1    1
    14     1     2    2
    15     2    31    1
    16    31    32    1
    17    32    33    1
    18    33    34    1
    19     2    25    1
    20    25    26   ar
    21    26    27   ar
    22    27    28   ar
    23    28    29   ar
    24    29    30   ar
    25     1     3    1
    26     3     4   ar
    27     4     5   ar
    28     5     6   ar
    29     6     7    1
    30     6     8   ar
    31     8     9   ar
    32    13    14   ar
    33    14    15   ar
    34    24    20    1
    35    15    10   ar
    36    30    25   ar
    37     9     3   ar
    38    34    35    1
