@<TRIPOS>MOLECULE
*****
 26 29 0 0 0
SMALL
GASTEIGER

@<TRIPOS>ATOM
      1 O         139.9694  138.2567  160.8938 O.2     1  UNL1       -0.2817
      2 C         139.5601  138.4059  162.3290 C.2     1  UNL1        0.2498
      3 C         138.5183  139.2020  163.0577 C.2     1  UNL1        0.1045
      4 C         138.9813  138.6169  164.3590 C.2     1  UNL1        0.1076
      5 C         140.0230  137.8208  163.6304 C.2     1  UNL1        0.2500
      6 O         141.0871  136.8441  164.0353 O.2     1  UNL1       -0.2817
      7 N         137.4543  140.1786  162.6528 N.pl3   1  UNL1       -0.3242
      8 H         136.5050  139.9587  162.7932 H       1  UNL1        0.1473
      9 C         137.8366  141.4904  162.0339 C.3     1  UNL1        0.1338
     10 C         138.4029  142.5860  162.8879 C.ar    1  UNL1        0.0788
     11 C         137.5553  143.2245  163.9480 C.ar    1  UNL1        0.0165
     12 C         138.1214  144.3200  164.8020 C.ar    1  UNL1        0.0029
     13 C         139.5351  144.7770  164.5959 C.ar    1  UNL1        0.0207
     14 C         140.3828  144.1384  163.5358 C.ar    1  UNL1        0.0985
     15 N         139.8166  143.0429  162.6818 N.ar    1  UNL1       -0.2464
     16 N         138.5720  138.7661  165.7943 N.pl3   1  UNL1       -0.3089
     17 H         137.9034  138.1560  166.1815 H       1  UNL1        0.1523
     18 C         139.1816  139.8450  166.6397 C.ar    1  UNL1        0.0500
     19 C         139.8764  141.0045  165.9898 C.ar    1  UNL1        0.0152
     20 C         140.4860  142.0834  166.8351 C.ar    1  UNL1        0.0093
     21 C         140.4005  142.0026  168.3305 C.ar    1  UNL1        0.0486
     22 S         140.9030  142.9089  169.4149 S.2     1  UNL1       -0.0645
     23 C         140.5186  142.3095  170.7351 C.ar    1  UNL1        0.1345
     24 N         139.7786  141.0327  170.4667 N.ar    1  UNL1       -0.2362
     25 C         139.7056  140.8430  168.9805 C.ar    1  UNL1        0.0892
     26 C         139.0961  139.7642  168.1351 C.ar    1  UNL1        0.0342
@<TRIPOS>BOND
     1     1     2    2
     2     2     3    1
     3     3     7    1
     4     7     9    1
     5     9    10    1
     6    10    11   ar
     7    11    12   ar
     8    12    13   ar
     9    13    14   ar
    10    14    15   ar
    11     3     4    2
    12     4    16    1
    13    16    18    1
    14    18    19   ar
    15    19    20   ar
    16    20    21   ar
    17    21    22   ar
    18    22    23   ar
    19    23    24   ar
    20    24    25   ar
    21    25    26   ar
    22     4     5    1
    23     5     6    2
    24     5     2    1
    25    15    10   ar
    26    26    18   ar
    27    25    21   ar
    28     7     8    1
    29    16    17    1
@<TRIPOS>MOLECULE
*****
 26 29 0 0 0
SMALL
GASTEIGER

@<TRIPOS>ATOM
      1 O         139.8325  145.8808  160.0785 O.2     1  UNL1       -0.2817
      2 C         140.0626  145.3129  161.4476 C.2     1  UNL1        0.2498
      3 C         141.2725  145.0121  162.2816 C.2     1  UNL1        0.1045
      4 C         140.3879  144.5096  163.3839 C.2     1  UNL1        0.1076
      5 C         139.1780  144.8104  162.5499 C.2     1  UNL1        0.2500
      6 O         137.6968  144.6677  162.7395 O.2     1  UNL1       -0.2817
      7 N         142.7536  145.1548  162.0920 N.pl3   1  UNL1       -0.3242
      8 H         143.1058  145.6187  161.2983 H       1  UNL1        0.1473
      9 C         143.6980  144.5907  163.1117 C.3     1  UNL1        0.1338
     10 C         144.0584  143.1350  163.0760 C.ar    1  UNL1        0.0788
     11 C         144.6988  142.4915  164.2701 C.ar    1  UNL1        0.0165
     12 C         145.0591  141.0359  164.2346 C.ar    1  UNL1        0.0029
     13 C         144.7790  140.2237  163.0050 C.ar    1  UNL1        0.0207
     14 C         144.1386  140.8672  161.8110 C.ar    1  UNL1        0.0985
     15 N         143.7782  142.3228  161.8465 N.ar    1  UNL1       -0.2464
     16 N         140.6179  143.9416  164.7530 N.pl3   1  UNL1       -0.3089
     17 H         140.5199  144.5156  165.5469 H       1  UNL1        0.1523
     18 C         140.9973  142.4991  164.9125 C.ar    1  UNL1        0.0500
     19 C         141.5711  142.0136  166.2104 C.ar    1  UNL1        0.0152
     20 C         141.9505  140.5711  166.3699 C.ar    1  UNL1        0.0093
     21 C         141.7559  139.6142  165.2313 C.ar    1  UNL1        0.0486
     22 S         142.0346  138.1467  165.0948 S.2     1  UNL1       -0.0645
     23 C         141.6330  137.7253  163.7124 C.ar    1  UNL1        0.1345
     24 N         141.1061  138.9323  162.9945 N.ar    1  UNL1       -0.2362
     25 C         141.1820  140.0998  163.9333 C.ar    1  UNL1        0.0892
     26 C         140.8027  141.5422  163.7738 C.ar    1  UNL1        0.0342
@<TRIPOS>BOND
     1     1     2    2
     2     2     3    1
     3     3     7    1
     4     7     9    1
     5     9    10    1
     6    10    11   ar
     7    11    12   ar
     8    12    13   ar
     9    13    14   ar
    10    14    15   ar
    11     3     4    2
    12     4    16    1
    13    16    18    1
    14    18    19   ar
    15    19    20   ar
    16    20    21   ar
    17    21    22   ar
    18    22    23   ar
    19    23    24   ar
    20    24    25   ar
    21    25    26   ar
    22     4     5    1
    23     5     6    2
    24     5     2    1
    25    15    10   ar
    26    26    18   ar
    27    25    21   ar
    28     7     8    1
    29    16    17    1
@<TRIPOS>MOLECULE
*****
 26 29 0 0 0
SMALL
GASTEIGER

@<TRIPOS>ATOM
      1 O         139.0412  143.5223  159.6825 O.2     1  UNL1       -0.2817
      2 C         138.5574  142.7674  160.8850 C.2     1  UNL1        0.2498
      3 C         138.5188  141.3223  161.2854 C.2     1  UNL1        0.1045
      4 C         137.8731  141.6998  162.5857 C.2     1  UNL1        0.1076
      5 C         137.9116  143.1448  162.1852 C.2     1  UNL1        0.2500
      6 O         137.4823  144.4336  162.8215 O.2     1  UNL1       -0.2817
      7 N         138.9482  140.0336  160.6492 N.pl3   1  UNL1       -0.3242
      8 H         139.2137  140.0171  159.7013 H       1  UNL1        0.1473
      9 C         138.9729  138.7701  161.4572 C.3     1  UNL1        0.1338
     10 C         139.9775  138.6036  162.5587 C.ar    1  UNL1        0.0788
     11 C         139.9031  137.4129  163.4679 C.ar    1  UNL1        0.0165
     12 C         140.9077  137.2463  164.5693 C.ar    1  UNL1        0.0029
     13 C         141.9866  138.2705  164.7616 C.ar    1  UNL1        0.0207
     14 C         142.0609  139.4613  163.8524 C.ar    1  UNL1        0.0985
     15 N         141.0564  139.6278  162.7509 N.ar    1  UNL1       -0.2464
     16 N         137.3892  140.9450  163.7882 N.pl3   1  UNL1       -0.3089
     17 H         136.4762  140.5771  163.8039 H       1  UNL1        0.1523
     18 C         138.2966  140.7506  164.9668 C.ar    1  UNL1        0.0500
     19 C         138.1101  139.5677  165.8699 C.ar    1  UNL1        0.0152
     20 C         139.0175  139.3734  167.0485 C.ar    1  UNL1        0.0093
     21 C         140.1114  140.3621  167.3238 C.ar    1  UNL1        0.0486
     22 S         141.1526  140.4327  168.4012 S.2     1  UNL1       -0.0645
     23 C         141.9827  141.6594  168.1639 C.ar    1  UNL1        0.1345
     24 N         141.4545  142.3468  166.9398 N.ar    1  UNL1       -0.2362
     25 C         140.2979  141.5451  166.4206 C.ar    1  UNL1        0.0892
     26 C         139.3905  141.7393  165.2421 C.ar    1  UNL1        0.0342
@<TRIPOS>BOND
     1     1     2    2
     2     2     3    1
     3     3     7    1
     4     7     9    1
     5     9    10    1
     6    10    11   ar
     7    11    12   ar
     8    12    13   ar
     9    13    14   ar
    10    14    15   ar
    11     3     4    2
    12     4    16    1
    13    16    18    1
    14    18    19   ar
    15    19    20   ar
    16    20    21   ar
    17    21    22   ar
    18    22    23   ar
    19    23    24   ar
    20    24    25   ar
    21    25    26   ar
    22     4     5    1
    23     5     6    2
    24     5     2    1
    25    15    10   ar
    26    26    18   ar
    27    25    21   ar
    28     7     8    1
    29    16    17    1
@<TRIPOS>MOLECULE
*****
 26 29 0 0 0
SMALL
GASTEIGER

@<TRIPOS>ATOM
      1 O         144.5294  138.7370  160.2566 O.2     1  UNL1       -0.2817
      2 C         144.0625  139.1586  161.6183 C.2     1  UNL1        0.2498
      3 C         143.0366  138.6563  162.5904 C.2     1  UNL1        0.1045
      4 C         143.4023  139.7550  163.5440 C.2     1  UNL1        0.1076
      5 C         144.4282  140.2573  162.5719 C.2     1  UNL1        0.2500
      6 O         145.4122  141.3894  162.5587 O.2     1  UNL1       -0.2817
      7 N         142.0526  137.5243  162.6036 N.pl3   1  UNL1       -0.3242
      8 H         142.3609  136.6061  162.7806 H       1  UNL1        0.1473
      9 C         140.5990  137.7911  162.3473 C.3     1  UNL1        0.1338
     10 C         139.7698  138.4878  163.3852 C.ar    1  UNL1        0.0788
     11 C         139.8594  138.0679  164.8224 C.ar    1  UNL1        0.0165
     12 C         139.0303  138.7645  165.8604 C.ar    1  UNL1        0.0029
     13 C         138.1116  139.8809  165.4611 C.ar    1  UNL1        0.0207
     14 C         138.0220  140.3008  164.0238 C.ar    1  UNL1        0.0985
     15 N         138.8511  139.6042  162.9859 N.ar    1  UNL1       -0.2464
     16 N         142.9354  140.1766  164.9057 N.pl3   1  UNL1       -0.3089
     17 H         143.3033  139.7418  165.7088 H       1  UNL1        0.1523
     18 C         141.9080  141.2608  165.0439 C.ar    1  UNL1        0.0500
     19 C         141.3785  141.6240  166.3994 C.ar    1  UNL1        0.0152
     20 C         140.3511  142.7082  166.5375 C.ar    1  UNL1        0.0093
     21 C         139.8533  143.4292  165.3200 C.ar    1  UNL1        0.0486
     22 S         138.8522  144.5327  165.1462 S.2     1  UNL1       -0.0645
     23 C         138.7632  144.8515  163.6832 C.ar    1  UNL1        0.1345
     24 N         139.7092  143.9451  162.9528 N.ar    1  UNL1       -0.2362
     25 C         140.3830  143.0660  163.9644 C.ar    1  UNL1        0.0892
     26 C         141.4103  141.9819  163.8263 C.ar    1  UNL1        0.0342
@<TRIPOS>BOND
     1     1     2    2
     2     2     3    1
     3     3     7    1
     4     7     9    1
     5     9    10    1
     6    10    11   ar
     7    11    12   ar
     8    12    13   ar
     9    13    14   ar
    10    14    15   ar
    11     3     4    2
    12     4    16    1
    13    16    18    1
    14    18    19   ar
    15    19    20   ar
    16    20    21   ar
    17    21    22   ar
    18    22    23   ar
    19    23    24   ar
    20    24    25   ar
    21    25    26   ar
    22     4     5    1
    23     5     6    2
    24     5     2    1
    25    15    10   ar
    26    26    18   ar
    27    25    21   ar
    28     7     8    1
    29    16    17    1
@<TRIPOS>MOLECULE
*****
 26 29 0 0 0
SMALL
GASTEIGER

@<TRIPOS>ATOM
      1 O         145.0448  142.8823  160.0686 O.2     1  UNL1       -0.2817
      2 C         144.4839  142.9740  161.4567 C.2     1  UNL1        0.2498
      3 C         143.3760  143.7509  162.1039 C.2     1  UNL1        0.1045
      4 C         143.6907  143.1036  163.4200 C.2     1  UNL1        0.1076
      5 C         144.7986  142.3267  162.7728 C.2     1  UNL1        0.2500
      6 O         145.8047  141.3195  163.2457 O.2     1  UNL1       -0.2817
      7 N         142.3699  144.7580  161.6310 N.pl3   1  UNL1       -0.3242
      8 H         142.6249  145.7049  161.5439 H       1  UNL1        0.1473
      9 C         140.9755  144.3223  161.2909 C.3     1  UNL1        0.1338
     10 C         139.9653  144.1216  162.3814 C.ar    1  UNL1        0.0788
     11 C         140.0299  144.9559  163.6264 C.ar    1  UNL1        0.0165
     12 C         139.0198  144.7553  164.7169 C.ar    1  UNL1        0.0029
     13 C         137.9450  143.7204  164.5626 C.ar    1  UNL1        0.0207
     14 C         137.8804  142.8861  163.3177 C.ar    1  UNL1        0.0985
     15 N         138.8905  143.0867  162.2271 N.ar    1  UNL1       -0.2464
     16 N         143.1299  143.1952  164.8082 N.pl3   1  UNL1       -0.3089
     17 H         143.5214  143.8239  165.4568 H       1  UNL1        0.1523
     18 C         141.9725  142.3288  165.2081 C.ar    1  UNL1        0.0500
     19 C         141.3327  142.5058  166.5532 C.ar    1  UNL1        0.0152
     20 C         140.1753  141.6394  166.9531 C.ar    1  UNL1        0.0093
     21 C         139.6578  140.5961  166.0079 C.ar    1  UNL1        0.0486
     22 S         138.5404  139.6021  166.1241 S.2     1  UNL1       -0.0645
     23 C         138.4896  138.8109  164.8508 C.ar    1  UNL1        0.1345
     24 N         139.5756  139.3157  163.9476 N.ar    1  UNL1       -0.2362
     25 C         140.2976  140.4191  164.6627 C.ar    1  UNL1        0.0892
     26 C         141.4549  141.2854  164.2629 C.ar    1  UNL1        0.0342
@<TRIPOS>BOND
     1     1     2    2
     2     2     3    1
     3     3     7    1
     4     7     9    1
     5     9    10    1
     6    10    11   ar
     7    11    12   ar
     8    12    13   ar
     9    13    14   ar
    10    14    15   ar
    11     3     4    2
    12     4    16    1
    13    16    18    1
    14    18    19   ar
    15    19    20   ar
    16    20    21   ar
    17    21    22   ar
    18    22    23   ar
    19    23    24   ar
    20    24    25   ar
    21    25    26   ar
    22     4     5    1
    23     5     6    2
    24     5     2    1
    25    15    10   ar
    26    26    18   ar
    27    25    21   ar
    28     7     8    1
    29    16    17    1
@<TRIPOS>MOLECULE
*****
 26 29 0 0 0
SMALL
GASTEIGER

@<TRIPOS>ATOM
      1 O         143.3222  137.3300  160.4760 O.2     1  UNL1       -0.2817
      2 C         143.0157  137.9978  161.7837 C.2     1  UNL1        0.2498
      3 C         143.6594  139.0803  162.5984 C.2     1  UNL1        0.1045
      4 C         142.5821  138.9423  163.6330 C.2     1  UNL1        0.1076
      5 C         141.9384  137.8599  162.8183 C.2     1  UNL1        0.2500
      6 O         140.7214  136.9968  162.9738 O.2     1  UNL1       -0.2817
      7 N         144.8764  139.9434  162.4429 N.pl3   1  UNL1       -0.3242
      8 H         145.7596  139.6022  162.7128 H       1  UNL1        0.1473
      9 C         144.7477  141.3262  161.8763 C.3     1  UNL1        0.1338
     10 C         144.4186  142.4788  162.7783 C.ar    1  UNL1        0.0788
     11 C         144.7589  142.4100  164.2375 C.ar    1  UNL1        0.0165
     12 C         144.4299  143.5624  165.1395 C.ar    1  UNL1        0.0029
     13 C         143.7606  144.7837  164.5822 C.ar    1  UNL1        0.0207
     14 C         143.4204  144.8525  163.1229 C.ar    1  UNL1        0.0985
     15 N         143.7494  143.7001  162.2210 N.ar    1  UNL1       -0.2464
     16 N         142.2756  139.6102  164.9407 N.pl3   1  UNL1       -0.3089
     17 H         142.5718  139.1990  165.7848 H       1  UNL1        0.1523
     18 C         141.5176  140.9045  164.9622 C.ar    1  UNL1        0.0500
     19 C         141.2359  141.5870  166.2678 C.ar    1  UNL1        0.0152
     20 C         140.4780  142.8813  166.2893 C.ar    1  UNL1        0.0093
     21 C         140.0018  143.4930  165.0052 C.ar    1  UNL1        0.0486
     22 S         139.2371  144.7505  164.7153 S.2     1  UNL1       -0.0645
     23 C         139.0463  144.8450  163.2305 C.ar    1  UNL1        0.1345
     24 N         139.6930  143.6460  162.6027 N.ar    1  UNL1       -0.2362
     25 C         140.2836  142.8104  163.6995 C.ar    1  UNL1        0.0892
     26 C         141.0415  141.5161  163.6780 C.ar    1  UNL1        0.0342
@<TRIPOS>BOND
     1     1     2    2
     2     2     3    1
     3     3     7    1
     4     7     9    1
     5     9    10    1
     6    10    11   ar
     7    11    12   ar
     8    12    13   ar
     9    13    14   ar
    10    14    15   ar
    11     3     4    2
    12     4    16    1
    13    16    18    1
    14    18    19   ar
    15    19    20   ar
    16    20    21   ar
    17    21    22   ar
    18    22    23   ar
    19    23    24   ar
    20    24    25   ar
    21    25    26   ar
    22     4     5    1
    23     5     6    2
    24     5     2    1
    25    15    10   ar
    26    26    18   ar
    27    25    21   ar
    28     7     8    1
    29    16    17    1
@<TRIPOS>MOLECULE
*****
 26 29 0 0 0
SMALL
GASTEIGER

@<TRIPOS>ATOM
      1 O         144.7133  142.8686  160.2939 O.2     1  UNL1       -0.2817
      2 C         144.5126  143.0067  161.7739 C.2     1  UNL1        0.2498
      3 C         143.7092  143.9168  162.6550 C.2     1  UNL1        0.1045
      4 C         144.2288  143.2020  163.8671 C.2     1  UNL1        0.1076
      5 C         145.0321  142.2920  162.9861 C.2     1  UNL1        0.2500
      6 O         145.9677  141.1430  163.2201 O.2     1  UNL1       -0.2817
      7 N         142.7737  145.0657  162.4210 N.pl3   1  UNL1       -0.3242
      8 H         143.0488  145.9807  162.6585 H       1  UNL1        0.1473
      9 C         141.4192  144.8206  161.8251 C.3     1  UNL1        0.1338
     10 C         140.2317  144.6190  162.7192 C.ar    1  UNL1        0.0788
     11 C         140.3797  144.7581  164.2054 C.ar    1  UNL1        0.0165
     12 C         139.1924  144.5565  165.0995 C.ar    1  UNL1        0.0029
     13 C         137.8569  144.2159  164.5075 C.ar    1  UNL1        0.0207
     14 C         137.7089  144.0768  163.0213 C.ar    1  UNL1        0.0985
     15 N         138.8962  144.2783  162.1272 N.ar    1  UNL1       -0.2464
     16 N         144.0281  143.3401  165.3472 N.pl3   1  UNL1       -0.3089
     17 H         144.5681  143.9847  165.8592 H       1  UNL1        0.1523
     18 C         143.0045  142.4961  166.0472 C.ar    1  UNL1        0.0500
     19 C         141.9364  141.8018  165.2554 C.ar    1  UNL1        0.0152
     20 C         140.9128  140.9577  165.9554 C.ar    1  UNL1        0.0093
     21 C         140.9575  140.8081  167.4473 C.ar    1  UNL1        0.0486
     22 S         140.0898  140.0479  168.4061 S.2     1  UNL1       -0.0645
     23 C         140.6218  140.2724  169.7905 C.ar    1  UNL1        0.1345
     24 N         141.8182  141.1713  169.6873 N.ar    1  UNL1       -0.2362
     25 C         142.0256  141.5024  168.2391 C.ar    1  UNL1        0.0892
     26 C         143.0491  142.3464  167.5391 C.ar    1  UNL1        0.0342
@<TRIPOS>BOND
     1     1     2    2
     2     2     3    1
     3     3     7    1
     4     7     9    1
     5     9    10    1
     6    10    11   ar
     7    11    12   ar
     8    12    13   ar
     9    13    14   ar
    10    14    15   ar
    11     3     4    2
    12     4    16    1
    13    16    18    1
    14    18    19   ar
    15    19    20   ar
    16    20    21   ar
    17    21    22   ar
    18    22    23   ar
    19    23    24   ar
    20    24    25   ar
    21    25    26   ar
    22     4     5    1
    23     5     6    2
    24     5     2    1
    25    15    10   ar
    26    26    18   ar
    27    25    21   ar
    28     7     8    1
    29    16    17    1
@<TRIPOS>MOLECULE
*****
 26 29 0 0 0
SMALL
GASTEIGER

@<TRIPOS>ATOM
      1 O         140.0559  145.0267  170.3193 O.2     1  UNL1       -0.2817
      2 C         140.4964  143.6878  169.8062 C.2     1  UNL1        0.2498
      3 C         140.4606  142.9979  168.4748 C.2     1  UNL1        0.1045
      4 C         141.1195  141.7942  169.0807 C.2     1  UNL1        0.1076
      5 C         141.1553  142.4842  170.4121 C.2     1  UNL1        0.2500
      6 O         141.6466  142.1209  171.7821 O.2     1  UNL1       -0.2817
      7 N         139.9693  143.3611  167.1049 N.pl3   1  UNL1       -0.3242
      8 H         139.1361  143.8751  167.0010 H       1  UNL1        0.1473
      9 C         140.7475  142.9412  165.8933 C.3     1  UNL1        0.1338
     10 C         140.0327  142.3789  164.7004 C.ar    1  UNL1        0.0788
     11 C         140.8174  141.8366  163.5428 C.ar    1  UNL1        0.0165
     12 C         140.1027  141.2743  162.3499 C.ar    1  UNL1        0.0029
     13 C         138.6032  141.2543  162.3146 C.ar    1  UNL1        0.0207
     14 C         137.8185  141.7967  163.4722 C.ar    1  UNL1        0.0985
     15 N         138.5332  142.3589  164.6651 N.ar    1  UNL1       -0.2464
     16 N         141.5601  140.4553  168.5677 N.pl3   1  UNL1       -0.3089
     17 H         142.3210  139.9932  168.9881 H       1  UNL1        0.1523
     18 C         140.8413  139.8206  167.4142 C.ar    1  UNL1        0.0500
     19 C         139.3435  139.7404  167.4163 C.ar    1  UNL1        0.0152
     20 C         138.6247  139.1056  166.2628 C.ar    1  UNL1        0.0093
     21 C         139.4039  138.5512  165.1072 C.ar    1  UNL1        0.0486
     22 S         138.9742  137.8734  163.8399 S.2     1  UNL1       -0.0645
     23 C         140.2065  137.5348  163.0546 C.ar    1  UNL1        0.1345
     24 N         141.3978  138.0032  163.8365 N.ar    1  UNL1       -0.2362
     25 C         140.9017  138.6314  165.1051 C.ar    1  UNL1        0.0892
     26 C         141.6204  139.2661  166.2586 C.ar    1  UNL1        0.0342
@<TRIPOS>BOND
     1     1     2    2
     2     2     3    1
     3     3     7    1
     4     7     9    1
     5     9    10    1
     6    10    11   ar
     7    11    12   ar
     8    12    13   ar
     9    13    14   ar
    10    14    15   ar
    11     3     4    2
    12     4    16    1
    13    16    18    1
    14    18    19   ar
    15    19    20   ar
    16    20    21   ar
    17    21    22   ar
    18    22    23   ar
    19    23    24   ar
    20    24    25   ar
    21    25    26   ar
    22     4     5    1
    23     5     6    2
    24     5     2    1
    25    15    10   ar
    26    26    18   ar
    27    25    21   ar
    28     7     8    1
    29    16    17    1
@<TRIPOS>MOLECULE
*****
 26 29 0 0 0
SMALL
GASTEIGER

@<TRIPOS>ATOM
      1 O         139.5991  144.6892  160.1913 O.2     1  UNL1       -0.2817
      2 C         139.5445  144.4474  161.6706 C.2     1  UNL1        0.2498
      3 C         140.3384  144.9191  162.8526 C.2     1  UNL1        0.1045
      4 C         139.4670  144.1053  163.7628 C.2     1  UNL1        0.1076
      5 C         138.6731  143.6336  162.5808 C.2     1  UNL1        0.2500
      6 O         137.4953  142.7246  162.3886 O.2     1  UNL1       -0.2817
      7 N         141.5161  145.8280  163.0448 N.pl3   1  UNL1       -0.3242
      8 H         141.5460  146.6986  162.5861 H       1  UNL1        0.1473
      9 C         142.6481  145.4105  163.9359 C.3     1  UNL1        0.1338
     10 C         143.5287  144.2618  163.5418 C.ar    1  UNL1        0.0788
     11 C         144.0936  143.3544  164.5942 C.ar    1  UNL1        0.0165
     12 C         144.9741  142.2058  164.2002 C.ar    1  UNL1        0.0029
     13 C         145.2897  141.9645  162.7538 C.ar    1  UNL1        0.0207
     14 C         144.7249  142.8719  161.7014 C.ar    1  UNL1        0.0985
     15 N         143.8443  144.0206  162.0954 N.ar    1  UNL1       -0.2464
     16 N         139.4123  143.8634  165.2421 N.pl3   1  UNL1       -0.3089
     17 H         138.8331  144.4204  165.8109 H       1  UNL1        0.1523
     18 C         140.2401  142.7728  165.8549 C.ar    1  UNL1        0.0500
     19 C         140.4625  142.7432  167.3379 C.ar    1  UNL1        0.0152
     20 C         141.2903  141.6526  167.9506 C.ar    1  UNL1        0.0093
     21 C         141.8957  140.5916  167.0802 C.ar    1  UNL1        0.0486
     22 S         142.7513  139.4010  167.3969 S.2     1  UNL1       -0.0645
     23 C         143.0577  138.6948  166.1096 C.ar    1  UNL1        0.1345
     24 N         142.3914  139.4488  164.9972 N.ar    1  UNL1       -0.2362
     25 C         141.6732  140.6211  165.5970 C.ar    1  UNL1        0.0892
     26 C         140.8454  141.7118  164.9844 C.ar    1  UNL1        0.0342
@<TRIPOS>BOND
     1     1     2    2
     2     2     3    1
     3     3     7    1
     4     7     9    1
     5     9    10    1
     6    10    11   ar
     7    11    12   ar
     8    12    13   ar
     9    13    14   ar
    10    14    15   ar
    11     3     4    2
    12     4    16    1
    13    16    18    1
    14    18    19   ar
    15    19    20   ar
    16    20    21   ar
    17    21    22   ar
    18    22    23   ar
    19    23    24   ar
    20    24    25   ar
    21    25    26   ar
    22     4     5    1
    23     5     6    2
    24     5     2    1
    25    15    10   ar
    26    26    18   ar
    27    25    21   ar
    28     7     8    1
    29    16    17    1
