@<TRIPOS>MOLECULE
*****
 30 33 0 0 0
SMALL
GASTEIGER

@<TRIPOS>ATOM
      1 C         142.6404  139.1120  160.6528 C.ar    1  UNL1        0.1232
      2 C         142.0097  138.2345  159.6125 C.ar    1  UNL1        0.1181
      3 N         142.7883  138.3911  158.3400 N.ar    1  UNL1       -0.2208
      4 N         143.9002  139.3655  158.5939 N.ar    1  UNL1       -0.0633
      5 N         143.8087  139.8110  160.0233 N.ar    1  UNL1       -0.1287
      6 C         141.2680  139.5677  164.9142 C.ar    1  UNL1        0.0651
      7 C         141.2491  140.7488  163.9898 C.ar    1  UNL1        0.0176
      8 C         141.7066  140.5969  162.5694 C.ar    1  UNL1        0.0031
      9 C         142.1829  139.2639  162.0733 C.ar    1  UNL1        0.0211
     10 C         142.2018  138.0827  162.9977 C.ar    1  UNL1        0.0031
     11 C         141.7444  138.2346  164.4181 C.ar    1  UNL1        0.0176
     12 C         138.1972  139.2832  165.9813 C.3     1  UNL1        0.0722
     13 C         139.3991  139.5888  166.8252 C.ar    1  UNL1        0.1247
     14 N         139.4005  139.8173  168.3076 N.ar    1  UNL1       -0.2290
     15 C         140.8129  140.0892  168.7334 C.ar    1  UNL1        0.1192
     16 C         141.6843  140.0288  167.5140 C.ar    1  UNL1        0.1019
     17 N         140.8106  139.7196  166.3347 N.ar    1  UNL1       -0.2923
     18 C         142.5048  137.6955  157.0416 C.3     1  UNL1        0.2139
     19 C         143.2381  136.4350  156.6904 C.2     1  UNL1        0.2511
     20 O         144.4349  136.4902  155.7878 O.2     1  UNL1       -0.2726
     21 N         142.7745  135.1193  157.2417 N.am    1  UNL1       -0.2816
     22 H         141.9890  135.0831  157.8341 H       1  UNL1        0.1549
     23 C         143.5078  133.8587  156.8905 C.ar    1  UNL1        0.0619
     24 C         144.5353  133.3020  157.8308 C.ar    1  UNL1        0.0156
     25 C         145.2686  132.0415  157.4796 C.ar    1  UNL1        0.0022
     26 C         144.9742  131.3376  156.1880 C.ar    1  UNL1        0.0123
     27 C         143.9466  131.8943  155.2478 C.ar    1  UNL1        0.0694
     28 CL        143.6523  131.1905  153.9563 Cl      1  UNL1       -0.0813
     29 C         143.2134  133.1549  155.5990 C.ar    1  UNL1        0.0816
     30 CL        142.1858  133.7116  154.6588 Cl      1  UNL1       -0.0801
@<TRIPOS>BOND
     1    12    13    1
     2    13    14   ar
     3    14    15   ar
     4    15    16   ar
     5    16    17   ar
     6    17     6    1
     7     6     7   ar
     8     7     8   ar
     9     8     9   ar
    10     9     1    1
    11     1     2   ar
    12     2     3   ar
    13     3    18    1
    14    18    19    1
    15    19    20    2
    16    19    21   am
    17    21    23    1
    18    23    24   ar
    19    24    25   ar
    20    25    26   ar
    21    26    27   ar
    22    27    28    1
    23    27    29   ar
    24    29    30    1
    25     3     4   ar
    26     4     5   ar
    27     9    10   ar
    28    10    11   ar
    29    17    13   ar
    30    11     6   ar
    31     5     1   ar
    32    29    23   ar
    33    21    22    1
@<TRIPOS>MOLECULE
*****
 30 33 0 0 0
SMALL
GASTEIGER

@<TRIPOS>ATOM
      1 C         140.9032  138.6236  160.4848 C.ar    1  UNL1        0.1232
      2 C         142.1848  138.7100  159.7101 C.ar    1  UNL1        0.1181
      3 N         141.8809  138.3972  158.2749 N.ar    1  UNL1       -0.2208
      4 N         140.4115  138.1174  158.1626 N.ar    1  UNL1       -0.0633
      5 N         139.8073  138.2574  159.5284 N.ar    1  UNL1       -0.1287
      6 C         140.4297  139.3377  164.9025 C.ar    1  UNL1        0.0651
      7 C         140.3824  140.4928  163.9467 C.ar    1  UNL1        0.0176
      8 C         140.5403  140.2547  162.4742 C.ar    1  UNL1        0.0031
      9 C         140.7454  138.8616  161.9574 C.ar    1  UNL1        0.0211
     10 C         140.7927  137.7065  162.9132 C.ar    1  UNL1        0.0031
     11 C         140.6348  137.9445  164.3857 C.ar    1  UNL1        0.0176
     12 C         137.7548  138.7254  166.6687 C.3     1  UNL1        0.0722
     13 C         139.0424  139.2943  167.1869 C.ar    1  UNL1        0.1247
     14 N         139.3265  139.6816  168.6079 N.ar    1  UNL1       -0.2290
     15 C         140.7316  140.2024  168.6743 C.ar    1  UNL1        0.1192
     16 C         141.3159  140.1370  167.2944 C.ar    1  UNL1        0.1019
     17 N         140.2719  139.5757  166.3751 N.ar    1  UNL1       -0.2923
     18 C         142.8723  138.3690  157.1496 C.3     1  UNL1        0.2139
     19 C         143.1916  137.0739  156.4636 C.2     1  UNL1        0.2511
     20 O         144.4777  136.9235  155.7063 O.2     1  UNL1       -0.2726
     21 N         142.2249  135.9292  156.5348 N.am    1  UNL1       -0.2816
     22 H         141.3808  136.0279  157.0318 H       1  UNL1        0.1549
     23 C         142.5442  134.6340  155.8488 C.ar    1  UNL1        0.0619
     24 C         142.0330  134.3736  154.4628 C.ar    1  UNL1        0.0156
     25 C         142.3523  133.0784  153.7768 C.ar    1  UNL1        0.0022
     26 C         143.1828  132.0438  154.4767 C.ar    1  UNL1        0.0123
     27 C         143.6940  132.3043  155.8626 C.ar    1  UNL1        0.0694
     28 CL        144.5246  131.2697  156.5624 Cl      1  UNL1       -0.0813
     29 C         143.3747  133.5994  156.5486 C.ar    1  UNL1        0.0816
     30 CL        143.8859  133.8600  157.9345 Cl      1  UNL1       -0.0801
@<TRIPOS>BOND
     1    12    13    1
     2    13    14   ar
     3    14    15   ar
     4    15    16   ar
     5    16    17   ar
     6    17     6    1
     7     6     7   ar
     8     7     8   ar
     9     8     9   ar
    10     9     1    1
    11     1     2   ar
    12     2     3   ar
    13     3    18    1
    14    18    19    1
    15    19    20    2
    16    19    21   am
    17    21    23    1
    18    23    24   ar
    19    24    25   ar
    20    25    26   ar
    21    26    27   ar
    22    27    28    1
    23    27    29   ar
    24    29    30    1
    25     3     4   ar
    26     4     5   ar
    27     9    10   ar
    28    10    11   ar
    29    17    13   ar
    30    11     6   ar
    31     5     1   ar
    32    29    23   ar
    33    21    22    1
@<TRIPOS>MOLECULE
*****
 30 33 0 0 0
SMALL
GASTEIGER

@<TRIPOS>ATOM
      1 C         142.2604  143.3931  163.2950 C.ar    1  UNL1        0.1232
      2 C         142.8057  142.5178  162.2057 C.ar    1  UNL1        0.1181
      3 N         142.9777  143.3602  160.9765 N.ar    1  UNL1       -0.2208
      4 N         142.5386  144.7561  161.3062 N.ar    1  UNL1       -0.0633
      5 N         142.0953  144.7765  162.7390 N.ar    1  UNL1       -0.1287
      6 C         141.2900  142.0965  167.4934 C.ar    1  UNL1        0.0651
      7 C         142.6984  142.0026  166.9861 C.ar    1  UNL1        0.0176
      8 C         143.0219  142.4348  165.5867 C.ar    1  UNL1        0.0031
      9 C         141.9369  142.9609  164.6945 C.ar    1  UNL1        0.0211
     10 C         140.5284  143.0548  165.2018 C.ar    1  UNL1        0.0031
     11 C         140.2050  142.6226  166.6012 C.ar    1  UNL1        0.0176
     12 C         140.4561  144.0600  169.9631 C.3     1  UNL1        0.0722
     13 C         140.5832  142.5668  170.0281 C.ar    1  UNL1        0.1247
     14 N         140.3493  141.7140  171.2397 N.ar    1  UNL1       -0.2290
     15 C         140.5881  140.2843  170.8533 C.ar    1  UNL1        0.1192
     16 C         140.9695  140.2536  169.4030 C.ar    1  UNL1        0.1019
     17 N         140.9665  141.6643  168.8929 N.ar    1  UNL1       -0.2923
     18 C         143.4975  142.8893  159.6506 C.3     1  UNL1        0.2139
     19 C         142.8050  143.2998  158.3849 C.2     1  UNL1        0.2511
     20 O         142.1042  142.2723  157.5463 O.2     1  UNL1       -0.2726
     21 N         142.8133  144.7377  157.9578 N.am    1  UNL1       -0.2816
     22 H         143.2732  145.4120  158.5083 H       1  UNL1        0.1549
     23 C         142.1208  145.1481  156.6921 C.ar    1  UNL1        0.0619
     24 C         142.7671  144.8847  155.3644 C.ar    1  UNL1        0.0156
     25 C         142.0746  145.2952  154.0987 C.ar    1  UNL1        0.0022
     26 C         140.7358  145.9690  154.1608 C.ar    1  UNL1        0.0123
     27 C         140.0896  146.2324  155.4885 C.ar    1  UNL1        0.0694
     28 CL        138.7509  146.9062  155.5506 Cl      1  UNL1       -0.0813
     29 C         140.7821  145.8219  156.7542 C.ar    1  UNL1        0.0816
     30 CL        140.1359  146.0853  158.0820 Cl      1  UNL1       -0.0801
@<TRIPOS>BOND
     1    12    13    1
     2    13    14   ar
     3    14    15   ar
     4    15    16   ar
     5    16    17   ar
     6    17     6    1
     7     6     7   ar
     8     7     8   ar
     9     8     9   ar
    10     9     1    1
    11     1     2   ar
    12     2     3   ar
    13     3    18    1
    14    18    19    1
    15    19    20    2
    16    19    21   am
    17    21    23    1
    18    23    24   ar
    19    24    25   ar
    20    25    26   ar
    21    26    27   ar
    22    27    28    1
    23    27    29   ar
    24    29    30    1
    25     3     4   ar
    26     4     5   ar
    27     9    10   ar
    28    10    11   ar
    29    17    13   ar
    30    11     6   ar
    31     5     1   ar
    32    29    23   ar
    33    21    22    1
@<TRIPOS>MOLECULE
*****
 30 33 0 0 0
SMALL
GASTEIGER

@<TRIPOS>ATOM
      1 C         141.0161  138.4668  160.0523 C.ar    1  UNL1        0.1232
      2 C         142.1406  138.2229  159.0899 C.ar    1  UNL1        0.1181
      3 N         141.5485  138.0228  157.7263 N.ar    1  UNL1       -0.2208
      4 N         140.0581  138.1431  157.8460 N.ar    1  UNL1       -0.0633
      5 N         139.7291  138.4175  159.2835 N.ar    1  UNL1       -0.1287
      6 C         141.4311  139.2152  164.4702 C.ar    1  UNL1        0.0651
      7 C         140.4573  138.1891  163.9716 C.ar    1  UNL1        0.0176
      8 C         140.3190  137.9396  162.4990 C.ar    1  UNL1        0.0031
      9 C         141.1545  138.7163  161.5250 C.ar    1  UNL1        0.0211
     10 C         142.1283  139.7424  162.0236 C.ar    1  UNL1        0.0031
     11 C         142.2667  139.9919  163.4962 C.ar    1  UNL1        0.0176
     12 C         143.8725  138.1769  166.3706 C.3     1  UNL1        0.0722
     13 C         142.6916  138.9874  166.8164 C.ar    1  UNL1        0.1247
     14 N         142.4257  139.4630  168.2139 N.ar    1  UNL1       -0.2290
     15 C         141.1391  140.2342  168.2041 C.ar    1  UNL1        0.1192
     16 C         140.6100  140.2352  166.8005 C.ar    1  UNL1        0.1019
     17 N         141.5695  139.4647  165.9429 N.ar    1  UNL1       -0.2923
     18 C         142.3126  137.7503  156.4647 C.3     1  UNL1        0.2139
     19 C         143.1084  136.4861  156.3280 C.2     1  UNL1        0.2511
     20 O         144.4742  136.5229  155.7088 O.2     1  UNL1       -0.2726
     21 N         142.5384  135.1852  156.8104 N.am    1  UNL1       -0.2816
     22 H         141.6420  135.1611  157.2168 H       1  UNL1        0.1549
     23 C         143.3341  133.9210  156.6738 C.ar    1  UNL1        0.0619
     24 C         144.2661  133.4993  157.7708 C.ar    1  UNL1        0.0156
     25 C         145.0619  132.2351  157.6342 C.ar    1  UNL1        0.0022
     26 C         144.9256  131.3928  156.4004 C.ar    1  UNL1        0.0123
     27 C         143.9937  131.8146  155.3034 C.ar    1  UNL1        0.0694
     28 CL        143.8575  130.9723  154.0698 Cl      1  UNL1       -0.0813
     29 C         143.1979  133.0787  155.4401 C.ar    1  UNL1        0.0816
     30 CL        142.2659  133.5006  154.3431 Cl      1  UNL1       -0.0801
@<TRIPOS>BOND
     1    12    13    1
     2    13    14   ar
     3    14    15   ar
     4    15    16   ar
     5    16    17   ar
     6    17     6    1
     7     6     7   ar
     8     7     8   ar
     9     8     9   ar
    10     9     1    1
    11     1     2   ar
    12     2     3   ar
    13     3    18    1
    14    18    19    1
    15    19    20    2
    16    19    21   am
    17    21    23    1
    18    23    24   ar
    19    24    25   ar
    20    25    26   ar
    21    26    27   ar
    22    27    28    1
    23    27    29   ar
    24    29    30    1
    25     3     4   ar
    26     4     5   ar
    27     9    10   ar
    28    10    11   ar
    29    17    13   ar
    30    11     6   ar
    31     5     1   ar
    32    29    23   ar
    33    21    22    1
@<TRIPOS>MOLECULE
*****
 30 33 0 0 0
SMALL
GASTEIGER

@<TRIPOS>ATOM
      1 C         142.7293  143.1241  163.6033 C.ar    1  UNL1        0.1232
      2 C         141.8635  143.1230  162.3785 C.ar    1  UNL1        0.1181
      3 N         142.6806  143.6422  161.2327 N.ar    1  UNL1       -0.2208
      4 N         144.0515  143.9642  161.7495 N.ar    1  UNL1       -0.0633
      5 N         144.0816  143.6439  163.2146 N.ar    1  UNL1       -0.1287
      6 C         141.4881  141.8000  167.7211 C.ar    1  UNL1        0.0651
      7 C         142.8994  141.5886  167.2590 C.ar    1  UNL1        0.0176
      8 C         143.3131  142.0299  165.8864 C.ar    1  UNL1        0.0031
      9 C         142.3156  142.6827  164.9760 C.ar    1  UNL1        0.0211
     10 C         140.9043  142.8941  165.4381 C.ar    1  UNL1        0.0031
     11 C         140.4906  142.4527  166.8107 C.ar    1  UNL1        0.0176
     12 C         142.4768  143.1164  170.5388 C.3     1  UNL1        0.0722
     13 C         141.5288  141.9637  170.3888 C.ar    1  UNL1        0.1247
     14 N         140.8687  141.2137  171.5077 N.ar    1  UNL1       -0.2290
     15 C         140.0063  140.1451  170.9041 C.ar    1  UNL1        0.1192
     16 C         140.1334  140.2346  169.4122 C.ar    1  UNL1        0.1019
     17 N         141.0743  141.3586  169.0937 N.ar    1  UNL1       -0.2923
     18 C         142.2095  143.8100  159.8185 C.3     1  UNL1        0.2139
     19 C         143.1011  143.4140  158.6791 C.2     1  UNL1        0.2511
     20 O         142.8337  143.9398  157.2998 O.2     1  UNL1       -0.2726
     21 N         144.2599  142.4923  158.9188 N.am    1  UNL1       -0.2816
     22 H         144.4353  142.1472  159.8240 H       1  UNL1        0.1549
     23 C         145.1514  142.0962  157.7793 C.ar    1  UNL1        0.0619
     24 C         146.4271  142.8449  157.5300 C.ar    1  UNL1        0.0156
     25 C         147.3187  142.4489  156.3906 C.ar    1  UNL1        0.0022
     26 C         146.9344  141.3042  155.5005 C.ar    1  UNL1        0.0123
     27 C         145.6588  140.5556  155.7498 C.ar    1  UNL1        0.0694
     28 CL        145.2746  139.4110  154.8597 Cl      1  UNL1       -0.0813
     29 C         144.7673  140.9516  156.8892 C.ar    1  UNL1        0.0816
     30 CL        143.4916  140.2031  157.1386 Cl      1  UNL1       -0.0801
@<TRIPOS>BOND
     1    12    13    1
     2    13    14   ar
     3    14    15   ar
     4    15    16   ar
     5    16    17   ar
     6    17     6    1
     7     6     7   ar
     8     7     8   ar
     9     8     9   ar
    10     9     1    1
    11     1     2   ar
    12     2     3   ar
    13     3    18    1
    14    18    19    1
    15    19    20    2
    16    19    21   am
    17    21    23    1
    18    23    24   ar
    19    24    25   ar
    20    25    26   ar
    21    26    27   ar
    22    27    28    1
    23    27    29   ar
    24    29    30    1
    25     3     4   ar
    26     4     5   ar
    27     9    10   ar
    28    10    11   ar
    29    17    13   ar
    30    11     6   ar
    31     5     1   ar
    32    29    23   ar
    33    21    22    1
@<TRIPOS>MOLECULE
*****
 30 33 0 0 0
SMALL
GASTEIGER

@<TRIPOS>ATOM
      1 C         143.1563  142.4043  163.0842 C.ar    1  UNL1        0.1232
      2 C         142.4710  142.7496  161.7954 C.ar    1  UNL1        0.1181
      3 N         143.4827  142.6533  160.6921 N.ar    1  UNL1       -0.2208
      4 N         144.7933  142.2483  161.2992 N.ar    1  UNL1       -0.0633
      5 N         144.5915  142.0944  162.7775 N.ar    1  UNL1       -0.1287
      6 C         141.2425  142.3136  167.1560 C.ar    1  UNL1        0.0651
      7 C         142.7370  142.3338  167.0301 C.ar    1  UNL1        0.0176
      8 C         143.3749  142.3641  165.6728 C.ar    1  UNL1        0.0031
      9 C         142.5183  142.3740  164.4415 C.ar    1  UNL1        0.0211
     10 C         141.0238  142.3538  164.5675 C.ar    1  UNL1        0.0031
     11 C         140.3859  142.3235  165.9247 C.ar    1  UNL1        0.0176
     12 C         139.3234  139.9452  168.3212 C.3     1  UNL1        0.0722
     13 C         139.7224  141.1948  169.0488 C.ar    1  UNL1        0.1247
     14 N         139.3094  141.5751  170.4398 N.ar    1  UNL1       -0.2290
     15 C         139.9362  142.8988  170.7639 C.ar    1  UNL1        0.1192
     16 C         140.7366  143.3365  169.5732 C.ar    1  UNL1        0.1019
     17 N         140.6045  142.2834  168.5133 N.ar    1  UNL1       -0.2923
     18 C         143.2284  142.9158  159.2373 C.3     1  UNL1        0.2139
     19 C         144.1129  142.2943  158.1974 C.2     1  UNL1        0.2511
     20 O         144.4509  140.8349  158.2750 O.2     1  UNL1       -0.2726
     21 N         144.6595  143.1323  157.0797 N.am    1  UNL1       -0.2816
     22 H         144.4377  144.0901  157.0288 H       1  UNL1        0.1549
     23 C         145.5439  142.5109  156.0397 C.ar    1  UNL1        0.0619
     24 C         144.9485  141.9771  154.7706 C.ar    1  UNL1        0.0156
     25 C         145.8330  141.3557  153.7306 C.ar    1  UNL1        0.0022
     26 C         147.3129  141.2681  153.9598 C.ar    1  UNL1        0.0123
     27 C         147.9082  141.8018  155.2289 C.ar    1  UNL1        0.0694
     28 CL        149.3880  141.7142  155.4580 Cl      1  UNL1       -0.0813
     29 C         147.0237  142.4232  156.2689 C.ar    1  UNL1        0.0816
     30 CL        147.6190  142.9570  157.5380 Cl      1  UNL1       -0.0801
@<TRIPOS>BOND
     1    12    13    1
     2    13    14   ar
     3    14    15   ar
     4    15    16   ar
     5    16    17   ar
     6    17     6    1
     7     6     7   ar
     8     7     8   ar
     9     8     9   ar
    10     9     1    1
    11     1     2   ar
    12     2     3   ar
    13     3    18    1
    14    18    19    1
    15    19    20    2
    16    19    21   am
    17    21    23    1
    18    23    24   ar
    19    24    25   ar
    20    25    26   ar
    21    26    27   ar
    22    27    28    1
    23    27    29   ar
    24    29    30    1
    25     3     4   ar
    26     4     5   ar
    27     9    10   ar
    28    10    11   ar
    29    17    13   ar
    30    11     6   ar
    31     5     1   ar
    32    29    23   ar
    33    21    22    1
@<TRIPOS>MOLECULE
*****
 30 33 0 0 0
SMALL
GASTEIGER

@<TRIPOS>ATOM
      1 C         140.7571  143.7861  161.2761 C.ar    1  UNL1        0.1232
      2 C         139.8899  143.6165  160.0639 C.ar    1  UNL1        0.1181
      3 N         140.4784  144.4368  158.9545 N.ar    1  UNL1       -0.2208
      4 N         141.7093  145.1134  159.4811 N.ar    1  UNL1       -0.0633
      5 N         141.8815  144.7113  160.9159 N.ar    1  UNL1       -0.1287
      6 C         140.1004  141.8581  165.2887 C.ar    1  UNL1        0.0651
      7 C         139.2586  143.0275  164.8718 C.ar    1  UNL1        0.0176
      8 C         139.4775  143.6701  163.5343 C.ar    1  UNL1        0.0031
      9 C         140.5382  143.1434  162.6137 C.ar    1  UNL1        0.0211
     10 C         141.3800  141.9740  163.0306 C.ar    1  UNL1        0.0031
     11 C         141.1611  141.3313  164.3681 C.ar    1  UNL1        0.0176
     12 C         138.4034  139.1277  165.8504 C.3     1  UNL1        0.0722
     13 C         139.1015  139.9604  166.8845 C.ar    1  UNL1        0.1247
     14 N         139.1422  139.6842  168.3582 N.ar    1  UNL1       -0.2290
     15 C         139.9473  140.7685  169.0110 C.ar    1  UNL1        0.1192
     16 C         140.4042  141.7148  167.9406 C.ar    1  UNL1        0.1019
     17 N         139.8815  141.2153  166.6263 N.ar    1  UNL1       -0.2923
     18 C         139.9320  144.5590  157.5630 C.3     1  UNL1        0.2139
     19 C         140.1615  145.8143  156.7746 C.2     1  UNL1        0.2511
     20 O         141.5559  146.3306  156.5756 O.2     1  UNL1       -0.2726
     21 N         138.9969  146.5534  156.1853 N.am    1  UNL1       -0.2816
     22 H         138.0818  146.2146  156.3160 H       1  UNL1        0.1549
     23 C         139.2264  147.8088  155.3970 C.ar    1  UNL1        0.0619
     24 C         139.8332  147.7337  154.0273 C.ar    1  UNL1        0.0156
     25 C         140.0628  148.9891  153.2390 C.ar    1  UNL1        0.0022
     26 C         139.6855  150.3194  153.8204 C.ar    1  UNL1        0.0123
     27 C         139.0787  150.3944  155.1901 C.ar    1  UNL1        0.0694
     28 CL        138.7015  151.7246  155.7715 Cl      1  UNL1       -0.0813
     29 C         138.8492  149.1390  155.9784 C.ar    1  UNL1        0.0816
     30 CL        138.2424  149.2139  157.3482 Cl      1  UNL1       -0.0801
@<TRIPOS>BOND
     1    12    13    1
     2    13    14   ar
     3    14    15   ar
     4    15    16   ar
     5    16    17   ar
     6    17     6    1
     7     6     7   ar
     8     7     8   ar
     9     8     9   ar
    10     9     1    1
    11     1     2   ar
    12     2     3   ar
    13     3    18    1
    14    18    19    1
    15    19    20    2
    16    19    21   am
    17    21    23    1
    18    23    24   ar
    19    24    25   ar
    20    25    26   ar
    21    26    27   ar
    22    27    28    1
    23    27    29   ar
    24    29    30    1
    25     3     4   ar
    26     4     5   ar
    27     9    10   ar
    28    10    11   ar
    29    17    13   ar
    30    11     6   ar
    31     5     1   ar
    32    29    23   ar
    33    21    22    1
@<TRIPOS>MOLECULE
*****
 30 33 0 0 0
SMALL
GASTEIGER

@<TRIPOS>ATOM
      1 C         141.0191  144.1849  160.2016 C.ar    1  UNL1        0.1232
      2 C         140.2195  143.3447  161.1528 C.ar    1  UNL1        0.1181
      3 N         139.2277  144.2371  161.8384 N.ar    1  UNL1       -0.2208
      4 N         139.4144  145.6289  161.3110 N.ar    1  UNL1       -0.0633
      5 N         140.5215  145.5966  160.2994 N.ar    1  UNL1       -0.1287
      6 C         144.3293  142.7264  157.5249 C.ar    1  UNL1        0.0651
      7 C         144.3130  142.3424  158.9748 C.ar    1  UNL1        0.0176
      8 C         143.2096  142.8286  159.8670 C.ar    1  UNL1        0.0031
      9 C         142.1225  143.6987  159.3093 C.ar    1  UNL1        0.0211
     10 C         142.1388  144.0827  157.8594 C.ar    1  UNL1        0.0031
     11 C         143.2422  143.5965  156.9672 C.ar    1  UNL1        0.0176
     12 C         147.5201  143.2576  157.9565 C.3     1  UNL1        0.0722
     13 C         146.8994  142.4843  156.8310 C.ar    1  UNL1        0.1247
     14 N         147.6363  141.8195  155.7063 N.ar    1  UNL1       -0.2290
     15 C         146.6250  141.1645  154.8127 C.ar    1  UNL1        0.1192
     16 C         145.2632  141.4244  155.3853 C.ar    1  UNL1        0.1019
     17 N         145.4327  142.2402  156.6326 N.ar    1  UNL1       -0.2923
     18 C         138.2254  143.8123  162.8703 C.3     1  UNL1        0.2139
     19 C         138.1496  142.3759  163.2957 C.2     1  UNL1        0.2511
     20 O         137.0141  141.5142  162.8286 O.2     1  UNL1       -0.2726
     21 N         139.2094  141.8012  164.1883 N.am    1  UNL1       -0.2816
     22 H         139.9546  142.3668  164.4949 H       1  UNL1        0.1549
     23 C         139.1336  140.3648  164.6137 C.ar    1  UNL1        0.0619
     24 C         138.1835  139.9532  165.6990 C.ar    1  UNL1        0.0156
     25 C         138.1077  138.5167  166.1244 C.ar    1  UNL1        0.0022
     26 C         138.9822  137.4920  165.4645 C.ar    1  UNL1        0.0123
     27 C         139.9323  137.9036  164.3793 C.ar    1  UNL1        0.0694
     28 CL        140.8067  136.8789  163.7195 Cl      1  UNL1       -0.0813
     29 C         140.0080  139.3401  163.9539 C.ar    1  UNL1        0.0816
     30 CL        140.9582  139.7518  162.8687 Cl      1  UNL1       -0.0801
@<TRIPOS>BOND
     1    12    13    1
     2    13    14   ar
     3    14    15   ar
     4    15    16   ar
     5    16    17   ar
     6    17     6    1
     7     6     7   ar
     8     7     8   ar
     9     8     9   ar
    10     9     1    1
    11     1     2   ar
    12     2     3   ar
    13     3    18    1
    14    18    19    1
    15    19    20    2
    16    19    21   am
    17    21    23    1
    18    23    24   ar
    19    24    25   ar
    20    25    26   ar
    21    26    27   ar
    22    27    28    1
    23    27    29   ar
    24    29    30    1
    25     3     4   ar
    26     4     5   ar
    27     9    10   ar
    28    10    11   ar
    29    17    13   ar
    30    11     6   ar
    31     5     1   ar
    32    29    23   ar
    33    21    22    1
@<TRIPOS>MOLECULE
*****
 30 33 0 0 0
SMALL
GASTEIGER

@<TRIPOS>ATOM
      1 C         143.4084  136.9388  156.3532 C.ar    1  UNL1        0.1232
      2 C         142.6292  137.8165  157.2874 C.ar    1  UNL1        0.1181
      3 N         143.2326  139.1891  157.2452 N.ar    1  UNL1       -0.2208
      4 N         144.3847  139.1597  156.2850 N.ar    1  UNL1       -0.0633
      5 N         144.4932  137.7689  155.7338 N.ar    1  UNL1       -0.1287
      6 C         142.6280  132.5803  155.5505 C.ar    1  UNL1        0.0651
      7 C         143.0790  133.0233  156.9107 C.ar    1  UNL1        0.0176
      8 C         143.3391  134.4761  157.1783 C.ar    1  UNL1        0.0031
      9 C         143.1482  135.4859  156.0856 C.ar    1  UNL1        0.0211
     10 C         142.6972  135.0429  154.7254 C.ar    1  UNL1        0.0031
     11 C         142.4371  133.5901  154.4578 C.ar    1  UNL1        0.0176
     12 C         144.8647  130.2041  155.5238 C.3     1  UNL1        0.0722
     13 C         143.3959  130.0352  155.2706 C.ar    1  UNL1        0.1247
     14 N         142.6974  128.7445  154.9606 N.ar    1  UNL1       -0.2290
     15 C         141.2375  129.0390  154.7813 C.ar    1  UNL1        0.1192
     16 C         141.0338  130.5117  154.9805 C.ar    1  UNL1        0.1019
     17 N         142.3678  131.1274  155.2828 N.ar    1  UNL1       -0.2923
     18 C         142.7659  140.3817  158.0262 C.3     1  UNL1        0.2139
     19 C         142.7492  140.3368  159.5254 C.2     1  UNL1        0.2511
     20 O         141.7628  141.1693  160.2898 O.2     1  UNL1       -0.2726
     21 N         143.7188  139.4595  160.2603 N.am    1  UNL1       -0.2816
     22 H         144.3662  138.9132  159.7586 H       1  UNL1        0.1549
     23 C         143.7021  139.4146  161.7596 C.ar    1  UNL1        0.0619
     24 C         144.6532  140.2673  162.5460 C.ar    1  UNL1        0.0156
     25 C         144.6365  140.2224  164.0452 C.ar    1  UNL1        0.0022
     26 C         143.6687  139.3248  164.7580 C.ar    1  UNL1        0.0123
     27 C         142.7178  138.4721  163.9715 C.ar    1  UNL1        0.0694
     28 CL        141.7501  137.5746  164.6842 Cl      1  UNL1       -0.0813
     29 C         142.7345  138.5170  162.4723 C.ar    1  UNL1        0.0816
     30 CL        141.7835  137.6644  161.6857 Cl      1  UNL1       -0.0801
@<TRIPOS>BOND
     1    12    13    1
     2    13    14   ar
     3    14    15   ar
     4    15    16   ar
     5    16    17   ar
     6    17     6    1
     7     6     7   ar
     8     7     8   ar
     9     8     9   ar
    10     9     1    1
    11     1     2   ar
    12     2     3   ar
    13     3    18    1
    14    18    19    1
    15    19    20    2
    16    19    21   am
    17    21    23    1
    18    23    24   ar
    19    24    25   ar
    20    25    26   ar
    21    26    27   ar
    22    27    28    1
    23    27    29   ar
    24    29    30    1
    25     3     4   ar
    26     4     5   ar
    27     9    10   ar
    28    10    11   ar
    29    17    13   ar
    30    11     6   ar
    31     5     1   ar
    32    29    23   ar
    33    21    22    1
