@<TRIPOS>MOLECULE
*****
 29 32 0 0 0
SMALL
GASTEIGER

@<TRIPOS>ATOM
      1 N         141.2443  141.3835  164.5855 N.am    1  UNL1       -0.1350
      2 C         141.3930  142.6560  165.3654 C.2     1  UNL1        0.4244
      3 N         141.2674  143.9801  164.6716 N.2     1  UNL1        0.0251
      4 C         140.9929  144.0314  163.1979 C.2     1  UNL1        0.3719
      5 N         140.8192  145.1798  162.2487 N.2     1  UNL1       -0.0308
      6 C         140.5631  144.6169  160.8821 C.2     1  UNL1        0.2234
      7 BR        140.3321  145.4109  159.6306 Br      1  UNL1        0.0017
      8 C         140.5785  143.1206  160.9867 C.2     1  UNL1        0.0504
      9 C         140.8442  142.7587  162.4179 C.3     1  UNL1        0.2307
     10 C         140.9699  141.4348  163.1117 C.2     1  UNL1        0.3040
     11 O         140.8211  140.1622  162.3318 O.2     1  UNL1       -0.2554
     12 N         141.6675  142.6047  166.8393 N.pl3   1  UNL1       -0.1886
     13 C         143.0276  142.2126  167.3357 C.3     1  UNL1        0.1682
     14 C         143.3021  142.1613  168.8095 C.3     1  UNL1        0.0420
     15 C         142.2164  142.5021  169.7868 C.3     1  UNL1        0.0222
     16 C         140.8563  142.8942  169.2904 C.3     1  UNL1        0.0888
     17 N         139.7706  143.2350  170.2678 N.3     1  UNL1       -0.3196
     18 C         140.5819  142.9455  167.8167 C.3     1  UNL1        0.1834
     19 H         138.9195  143.4763  169.7600 H       1  UNL1        0.1189
     20 H         140.0631  144.0286  170.8378 H       1  UNL1        0.1189
     21 C         141.3700  140.0595  165.2793 C.3     1  UNL1        0.2035
     22 C         139.7054  138.0728  165.1005 C.ar    1  UNL1        0.0675
     23 C         138.4774  137.3595  165.5833 C.ar    1  UNL1        0.0101
     24 C         137.6859  137.9196  166.7279 C.ar    1  UNL1        0.0007
     25 C         138.1225  139.1930  167.3896 C.ar    1  UNL1       -0.0002
     26 C         139.3506  139.9063  166.9067 C.ar    1  UNL1       -0.0004
     27 C         140.1420  139.3462  165.7621 C.ar    1  UNL1        0.0251
     28 N         141.2882  136.9526  162.8114 N.1     1  UNL1       -0.1908
     29 C         140.4968  137.5127  163.9560 C.1     1  UNL1        0.1002
@<TRIPOS>BOND
     1    28    29    3
     2    29    22    1
     3    22    23   ar
     4    23    24   ar
     5    24    25   ar
     6    25    26   ar
     7    26    27   ar
     8    27    21    1
     9    21     1    1
    10     1     2    1
    11     2    12    1
    12    12    13    1
    13    13    14    1
    14    14    15    1
    15    15    16    1
    16    16    17    1
    17    16    18    1
    18     2     3    2
    19     3     4    1
    20     4     5    2
    21     5     6    1
    22     6     7    1
    23     6     8    2
    24     8     9    1
    25     9    10    1
    26    10    11    2
    27    27    22   ar
    28    10     1   am
    29    18    12    1
    30     9     4    1
    31    17    19    1
    32    17    20    1
@<TRIPOS>MOLECULE
*****
 29 32 0 0 0
SMALL
GASTEIGER

@<TRIPOS>ATOM
      1 N         139.2614  141.8940  160.0151 N.am    1  UNL1       -0.1350
      2 C         138.7169  140.4977  160.0764 C.2     1  UNL1        0.4244
      3 N         137.7927  140.0052  159.0024 N.2     1  UNL1        0.0251
      4 C         137.4131  140.9091  157.8672 C.2     1  UNL1        0.3719
      5 N         136.5289  140.7034  156.6731 N.2     1  UNL1       -0.0308
      6 C         136.5269  141.9727  155.8737 C.2     1  UNL1        0.2234
      7 BR        135.7742  142.2103  154.5982 Br      1  UNL1        0.0017
      8 C         137.4099  142.9628  156.5738 C.2     1  UNL1        0.0504
      9 C         137.9576  142.3054  157.8059 C.3     1  UNL1        0.2307
     10 C         138.8817  142.7979  158.8798 C.2     1  UNL1        0.3040
     11 O         139.4262  144.1942  158.8185 O.2     1  UNL1       -0.2554
     12 N         139.0966  139.5938  161.2118 N.pl3   1  UNL1       -0.1886
     13 C         138.1861  139.4536  162.3956 C.3     1  UNL1        0.1682
     14 C         138.5657  138.5497  163.5308 C.3     1  UNL1        0.0420
     15 C         139.8559  137.7861  163.4823 C.3     1  UNL1        0.0222
     16 C         140.7664  137.9263  162.2985 C.3     1  UNL1        0.0888
     17 N         142.0566  137.1626  162.2500 N.3     1  UNL1       -0.3196
     18 C         140.3867  138.8302  161.1633 C.3     1  UNL1        0.1834
     19 H         142.5454  137.3760  161.3806 H       1  UNL1        0.1189
     20 H         141.8615  136.1624  162.2937 H       1  UNL1        0.1189
     21 C         140.1856  142.3865  161.0891 C.3     1  UNL1        0.2035
     22 C         140.5182  144.0851  163.0267 C.ar    1  UNL1        0.0675
     23 C         139.9691  144.8409  164.2001 C.ar    1  UNL1        0.0101
     24 C         138.5381  144.6541  164.6096 C.ar    1  UNL1        0.0007
     25 C         137.6564  143.7114  163.8455 C.ar    1  UNL1       -0.0002
     26 C         138.2056  142.9556  162.6719 C.ar    1  UNL1       -0.0004
     27 C         139.6365  143.1424  162.2625 C.ar    1  UNL1        0.0251
     28 N         143.3800  144.4586  162.2078 N.1     1  UNL1       -0.1908
     29 C         141.9491  144.2719  162.6173 C.1     1  UNL1        0.1002
@<TRIPOS>BOND
     1    28    29    3
     2    29    22    1
     3    22    23   ar
     4    23    24   ar
     5    24    25   ar
     6    25    26   ar
     7    26    27   ar
     8    27    21    1
     9    21     1    1
    10     1     2    1
    11     2    12    1
    12    12    13    1
    13    13    14    1
    14    14    15    1
    15    15    16    1
    16    16    17    1
    17    16    18    1
    18     2     3    2
    19     3     4    1
    20     4     5    2
    21     5     6    1
    22     6     7    1
    23     6     8    2
    24     8     9    1
    25     9    10    1
    26    10    11    2
    27    27    22   ar
    28    10     1   am
    29    18    12    1
    30     9     4    1
    31    17    19    1
    32    17    20    1
@<TRIPOS>MOLECULE
*****
 29 32 0 0 0
SMALL
GASTEIGER

@<TRIPOS>ATOM
      1 N         141.2423  139.7897  162.6937 N.am    1  UNL1       -0.1350
      2 C         140.4041  140.7365  161.8871 C.2     1  UNL1        0.4244
      3 N         140.3898  140.6371  160.3904 N.2     1  UNL1        0.0251
      4 C         141.2139  139.5907  159.7005 C.2     1  UNL1        0.3719
      5 N         141.3996  139.2542  158.2505 N.2     1  UNL1       -0.0308
      6 C         142.3526  138.0994  158.1611 C.2     1  UNL1        0.2234
      7 BR        142.8202  137.4378  156.8987 Br      1  UNL1        0.0017
      8 C         142.7560  137.7221  159.5558 C.2     1  UNL1        0.0504
      9 C         142.0522  138.6439  160.5071 C.3     1  UNL1        0.2307
     10 C         142.0664  138.7433  162.0038 C.2     1  UNL1        0.3040
     11 O         142.9047  137.7965  162.8105 O.2     1  UNL1       -0.2554
     12 N         139.5799  141.7829  162.5771 N.pl3   1  UNL1       -0.1886
     13 C         138.1529  141.4954  162.9392 C.3     1  UNL1        0.1682
     14 C         137.3288  142.5417  163.6291 C.3     1  UNL1        0.0420
     15 C         137.9317  143.8755  163.9570 C.3     1  UNL1        0.0222
     16 C         139.3587  144.1630  163.5949 C.3     1  UNL1        0.0888
     17 N         139.9617  145.4968  163.9228 N.3     1  UNL1       -0.3196
     18 C         140.1828  143.1167  162.9050 C.3     1  UNL1        0.1834
     19 H         140.9315  145.5182  163.6077 H       1  UNL1        0.1189
     20 H         139.9284  145.6463  164.9313 H       1  UNL1        0.1189
     21 C         141.2566  139.8891  164.1904 C.3     1  UNL1        0.2035
     22 C         139.5016  140.0716  166.0974 C.ar    1  UNL1        0.0675
     23 C         138.3877  139.4673  166.8998 C.ar    1  UNL1        0.0101
     24 C         137.9148  138.0761  166.5978 C.ar    1  UNL1        0.0007
     25 C         138.5559  137.2893  165.4932 C.ar    1  UNL1       -0.0002
     26 C         139.6698  137.8937  164.6908 C.ar    1  UNL1       -0.0004
     27 C         140.1427  139.2848  164.9928 C.ar    1  UNL1        0.0251
     28 N         140.4473  142.8537  166.7015 N.1     1  UNL1       -0.1908
     29 C         139.9744  141.4627  166.3995 C.1     1  UNL1        0.1002
@<TRIPOS>BOND
     1    28    29    3
     2    29    22    1
     3    22    23   ar
     4    23    24   ar
     5    24    25   ar
     6    25    26   ar
     7    26    27   ar
     8    27    21    1
     9    21     1    1
    10     1     2    1
    11     2    12    1
    12    12    13    1
    13    13    14    1
    14    14    15    1
    15    15    16    1
    16    16    17    1
    17    16    18    1
    18     2     3    2
    19     3     4    1
    20     4     5    2
    21     5     6    1
    22     6     7    1
    23     6     8    2
    24     8     9    1
    25     9    10    1
    26    10    11    2
    27    27    22   ar
    28    10     1   am
    29    18    12    1
    30     9     4    1
    31    17    19    1
    32    17    20    1
@<TRIPOS>MOLECULE
*****
 29 32 0 0 0
SMALL
GASTEIGER

@<TRIPOS>ATOM
      1 N         140.5776  143.2484  160.0987 N.am    1  UNL1       -0.1350
      2 C         141.7989  144.1030  160.2658 C.2     1  UNL1        0.4244
      3 N         142.1678  145.0993  159.2068 N.2     1  UNL1        0.0251
      4 C         141.3153  145.2409  157.9807 C.2     1  UNL1        0.3719
      5 N         141.4272  146.1297  156.7777 N.2     1  UNL1       -0.0308
      6 C         140.2750  145.8244  155.8671 C.2     1  UNL1        0.2234
      7 BR        139.9957  146.4813  154.5478 Br      1  UNL1        0.0017
      8 C         139.4510  144.7468  156.5073 C.2     1  UNL1        0.0504
      9 C         140.0940  144.3862  157.8137 C.3     1  UNL1        0.2307
     10 C         139.7252  143.3899  158.8726 C.2     1  UNL1        0.3040
     11 O         138.5039  142.5352  158.7056 O.2     1  UNL1       -0.2554
     12 N         142.6514  143.9614  161.4919 N.pl3   1  UNL1       -0.1886
     13 C         142.3406  144.7669  162.7186 C.3     1  UNL1        0.1682
     14 C         143.1930  144.6253  163.9446 C.3     1  UNL1        0.0420
     15 C         144.3563  143.6784  163.9440 C.3     1  UNL1        0.0222
     16 C         144.6672  142.8730  162.7174 C.3     1  UNL1        0.0888
     17 N         145.8305  141.9260  162.7167 N.3     1  UNL1       -0.3196
     18 C         143.8147  143.0145  161.4913 C.3     1  UNL1        0.1834
     19 H         145.8937  141.4656  161.8087 H       1  UNL1        0.1189
     20 H         145.6982  141.2243  163.4451 H       1  UNL1        0.1189
     21 C         140.2087  142.2521  161.1577 C.3     1  UNL1        0.2035
     22 C         139.9594  142.2508  163.7438 C.ar    1  UNL1        0.0675
     23 C         139.2389  142.7018  164.9795 C.ar    1  UNL1        0.0101
     24 C         138.0469  143.6054  164.8650 C.ar    1  UNL1        0.0007
     25 C         137.5756  144.0577  163.5148 C.ar    1  UNL1       -0.0002
     26 C         138.2963  143.6066  162.2790 C.ar    1  UNL1       -0.0004
     27 C         139.4882  142.7031  162.3934 C.ar    1  UNL1        0.0251
     28 N         142.3432  140.4438  163.9726 N.1     1  UNL1       -0.1908
     29 C         141.1513  141.3473  163.8582 C.1     1  UNL1        0.1002
@<TRIPOS>BOND
     1    28    29    3
     2    29    22    1
     3    22    23   ar
     4    23    24   ar
     5    24    25   ar
     6    25    26   ar
     7    26    27   ar
     8    27    21    1
     9    21     1    1
    10     1     2    1
    11     2    12    1
    12    12    13    1
    13    13    14    1
    14    14    15    1
    15    15    16    1
    16    16    17    1
    17    16    18    1
    18     2     3    2
    19     3     4    1
    20     4     5    2
    21     5     6    1
    22     6     7    1
    23     6     8    2
    24     8     9    1
    25     9    10    1
    26    10    11    2
    27    27    22   ar
    28    10     1   am
    29    18    12    1
    30     9     4    1
    31    17    19    1
    32    17    20    1
@<TRIPOS>MOLECULE
*****
 29 32 0 0 0
SMALL
GASTEIGER

@<TRIPOS>ATOM
      1 N         141.4977  139.6670  160.5088 N.am    1  UNL1       -0.1350
      2 C         142.9693  139.9277  160.3813 C.2     1  UNL1        0.4244
      3 N         143.7229  139.4078  159.1930 N.2     1  UNL1        0.0251
      4 C         143.0047  138.6274  158.1323 C.2     1  UNL1        0.3719
      5 N         143.4789  137.9940  156.8580 N.2     1  UNL1       -0.0308
      6 C         142.3003  137.3419  156.1979 C.2     1  UNL1        0.2234
      7 BR        142.3207  136.5912  154.8995 Br      1  UNL1        0.0017
      8 C         141.0977  137.5723  157.0643 C.2     1  UNL1        0.0504
      9 C         141.5330  138.3668  158.2598 C.3     1  UNL1        0.2307
     10 C         140.7795  138.8866  159.4481 C.2     1  UNL1        0.3040
     11 O         139.3079  138.6259  159.5757 O.2     1  UNL1       -0.2554
     12 N         143.6875  140.7081  161.4421 N.pl3   1  UNL1       -0.1886
     13 C         144.4431  139.9892  162.5201 C.3     1  UNL1        0.1682
     14 C         145.1613  140.7696  163.5808 C.3     1  UNL1        0.0420
     15 C         145.1238  142.2690  163.5635 C.3     1  UNL1        0.0222
     16 C         144.3682  142.9880  162.4855 C.3     1  UNL1        0.0888
     17 N         144.3306  144.4875  162.4682 N.3     1  UNL1       -0.3196
     18 C         143.6500  142.2076  161.4248 C.3     1  UNL1        0.1834
     19 H         143.7766  144.8046  161.6726 H       1  UNL1        0.1189
     20 H         145.2804  144.8505  162.3873 H       1  UNL1        0.1189
     21 C         140.7441  140.1868  161.6971 C.3     1  UNL1        0.2035
     22 C         139.0727  139.4198  163.5324 C.ar    1  UNL1        0.0675
     23 C         138.7120  138.4935  164.6556 C.ar    1  UNL1        0.0101
     24 C         139.6619  137.4078  165.0669 C.ar    1  UNL1        0.0007
     25 C         140.9725  137.2485  164.3549 C.ar    1  UNL1       -0.0002
     26 C         141.3332  138.1749  163.2316 C.ar    1  UNL1       -0.0004
     27 C         140.3834  139.2605  162.8203 C.ar    1  UNL1        0.0251
     28 N         137.1731  141.5910  162.7098 N.1     1  UNL1       -0.1908
     29 C         138.1229  140.5054  163.1211 C.1     1  UNL1        0.1002
@<TRIPOS>BOND
     1    28    29    3
     2    29    22    1
     3    22    23   ar
     4    23    24   ar
     5    24    25   ar
     6    25    26   ar
     7    26    27   ar
     8    27    21    1
     9    21     1    1
    10     1     2    1
    11     2    12    1
    12    12    13    1
    13    13    14    1
    14    14    15    1
    15    15    16    1
    16    16    17    1
    17    16    18    1
    18     2     3    2
    19     3     4    1
    20     4     5    2
    21     5     6    1
    22     6     7    1
    23     6     8    2
    24     8     9    1
    25     9    10    1
    26    10    11    2
    27    27    22   ar
    28    10     1   am
    29    18    12    1
    30     9     4    1
    31    17    19    1
    32    17    20    1
@<TRIPOS>MOLECULE
*****
 29 32 0 0 0
SMALL
GASTEIGER

@<TRIPOS>ATOM
      1 N         139.7998  141.2595  165.5967 N.am    1  UNL1       -0.1350
      2 C         141.0249  142.0494  165.2432 C.2     1  UNL1        0.4244
      3 N         142.1842  142.1011  166.1937 N.2     1  UNL1        0.0251
      4 C         142.1184  141.3628  167.4977 C.2     1  UNL1        0.3719
      5 N         143.0974  141.2299  168.6263 N.2     1  UNL1       -0.0308
      6 C         142.4773  140.3578  169.6775 C.2     1  UNL1        0.2234
      7 BR        143.1085  139.9613  170.9791 Br      1  UNL1        0.0017
      8 C         141.1150  139.9517  169.1984 C.2     1  UNL1        0.0504
      9 C         140.8932  140.5728  167.8512 C.3     1  UNL1        0.2307
     10 C         139.7340  140.5212  166.9008 C.2     1  UNL1        0.3040
     11 O         138.5088  139.7312  167.2543 O.2     1  UNL1       -0.2554
     12 N         141.0908  142.7878  163.9391 N.pl3   1  UNL1       -0.1886
     13 C         141.5862  142.0907  162.7067 C.3     1  UNL1        0.1682
     14 C         141.6521  142.8290  161.4027 C.3     1  UNL1        0.0420
     15 C         141.2225  144.2644  161.3310 C.3     1  UNL1        0.0222
     16 C         140.7270  144.9614  162.5633 C.3     1  UNL1        0.0888
     17 N         140.2974  146.3969  162.4916 N.3     1  UNL1       -0.3196
     18 C         140.6611  144.2231  163.8673 C.3     1  UNL1        0.1834
     19 H         139.9922  146.7069  163.4142 H       1  UNL1        0.1189
     20 H         139.5265  146.4884  161.8300 H       1  UNL1        0.1189
     21 C         138.6405  141.2078  164.6462 C.3     1  UNL1        0.2035
     22 C         138.2657  140.5158  162.1702 C.ar    1  UNL1        0.0675
     23 C         138.2098  139.4538  161.1125 C.ar    1  UNL1        0.0101
     24 C         138.4727  138.0216  161.4730 C.ar    1  UNL1        0.0007
     25 C         138.7916  137.6516  162.8912 C.ar    1  UNL1       -0.0002
     26 C         138.8475  138.7137  163.9490 C.ar    1  UNL1       -0.0004
     27 C         138.5846  140.1458  163.5885 C.ar    1  UNL1        0.0251
     28 N         137.7399  143.3800  161.4494 N.1     1  UNL1       -0.1908
     29 C         138.0028  141.9479  161.8098 C.1     1  UNL1        0.1002
@<TRIPOS>BOND
     1    28    29    3
     2    29    22    1
     3    22    23   ar
     4    23    24   ar
     5    24    25   ar
     6    25    26   ar
     7    26    27   ar
     8    27    21    1
     9    21     1    1
    10     1     2    1
    11     2    12    1
    12    12    13    1
    13    13    14    1
    14    14    15    1
    15    15    16    1
    16    16    17    1
    17    16    18    1
    18     2     3    2
    19     3     4    1
    20     4     5    2
    21     5     6    1
    22     6     7    1
    23     6     8    2
    24     8     9    1
    25     9    10    1
    26    10    11    2
    27    27    22   ar
    28    10     1   am
    29    18    12    1
    30     9     4    1
    31    17    19    1
    32    17    20    1
@<TRIPOS>MOLECULE
*****
 29 32 0 0 0
SMALL
GASTEIGER

@<TRIPOS>ATOM
      1 N         141.0853  142.2602  163.8786 N.am    1  UNL1       -0.1350
      2 C         140.1639  141.2831  163.2107 C.2     1  UNL1        0.4244
      3 N         139.6297  141.5727  161.8393 N.2     1  UNL1        0.0251
      4 C         140.0170  142.8396  161.1357 C.2     1  UNL1        0.3719
      5 N         139.6516  143.3923  159.7900 N.2     1  UNL1       -0.0308
      6 C         140.3473  144.7111  159.6262 C.2     1  UNL1        0.2234
      7 BR        140.2625  145.6099  158.4282 Br      1  UNL1        0.0017
      8 C         141.1426  144.9735  160.8707 C.2     1  UNL1        0.0504
      9 C         140.9385  143.8168  161.8036 C.3     1  UNL1        0.2307
     10 C         141.4726  143.5271  163.1750 C.2     1  UNL1        0.3040
     11 O         142.3941  144.5043  163.8429 O.2     1  UNL1       -0.2554
     12 N         139.7765  140.0161  163.9143 N.pl3   1  UNL1       -0.1886
     13 C         140.3906  138.7112  163.5017 C.3     1  UNL1        0.1682
     14 C         140.0033  137.4444  164.2052 C.3     1  UNL1        0.0420
     15 C         139.0019  137.4823  165.3214 C.3     1  UNL1        0.0222
     16 C         138.3879  138.7872  165.7340 C.3     1  UNL1        0.0888
     17 N         137.3864  138.8253  166.8502 N.3     1  UNL1       -0.3196
     18 C         138.7752  140.0541  165.0305 C.3     1  UNL1        0.1834
     19 H         137.0756  139.7858  166.9955 H       1  UNL1        0.1189
     20 H         137.8172  138.4743  167.7055 H       1  UNL1        0.1189
     21 C         141.6195  141.9705  165.2500 C.3     1  UNL1        0.2035
     22 C         142.2716  139.8815  166.6503 C.ar    1  UNL1        0.0675
     23 C         143.1588  138.6930  166.8740 C.ar    1  UNL1        0.0101
     24 C         144.2810  138.4047  165.9213 C.ar    1  UNL1        0.0007
     25 C         144.5160  139.3051  164.7448 C.ar    1  UNL1       -0.0002
     26 C         143.6287  140.4937  164.5211 C.ar    1  UNL1       -0.0004
     27 C         142.5066  140.7820  165.4738 C.ar    1  UNL1        0.0251
     28 N         140.0273  140.4581  168.5557 N.1     1  UNL1       -0.1908
     29 C         141.1495  140.1698  167.6030 C.1     1  UNL1        0.1002
@<TRIPOS>BOND
     1    28    29    3
     2    29    22    1
     3    22    23   ar
     4    23    24   ar
     5    24    25   ar
     6    25    26   ar
     7    26    27   ar
     8    27    21    1
     9    21     1    1
    10     1     2    1
    11     2    12    1
    12    12    13    1
    13    13    14    1
    14    14    15    1
    15    15    16    1
    16    16    17    1
    17    16    18    1
    18     2     3    2
    19     3     4    1
    20     4     5    2
    21     5     6    1
    22     6     7    1
    23     6     8    2
    24     8     9    1
    25     9    10    1
    26    10    11    2
    27    27    22   ar
    28    10     1   am
    29    18    12    1
    30     9     4    1
    31    17    19    1
    32    17    20    1
@<TRIPOS>MOLECULE
*****
 29 32 0 0 0
SMALL
GASTEIGER

@<TRIPOS>ATOM
      1 N         141.2518  144.2849  161.2273 N.am    1  UNL1       -0.1350
      2 C         142.1659  143.2861  160.5821 C.2     1  UNL1        0.4244
      3 N         142.3657  143.3028  159.0955 N.2     1  UNL1        0.0251
      4 C         141.6512  144.3185  158.2542 C.2     1  UNL1        0.3719
      5 N         141.6510  144.5768  156.7766 N.2     1  UNL1       -0.0308
      6 C         140.7367  145.7353  156.5087 C.2     1  UNL1        0.2234
      7 BR        140.4394  146.3314  155.1647 Br      1  UNL1        0.0017
      8 C         140.1717  146.1931  157.8207 C.2     1  UNL1        0.0504
      9 C         140.7369  145.3175  158.8995 C.3     1  UNL1        0.2307
     10 C         140.5372  145.3007  160.3860 C.2     1  UNL1        0.3040
     11 O         139.6230  146.2996  161.0313 O.2     1  UNL1       -0.2554
     12 N         142.8805  142.2703  161.4234 N.pl3   1  UNL1       -0.1886
     13 C         142.2205  140.9612  161.7407 C.3     1  UNL1        0.1682
     14 C         142.9351  139.9455  162.5819 C.3     1  UNL1        0.0420
     15 C         144.3096  140.2389  163.1060 C.3     1  UNL1        0.0222
     16 C         144.9695  141.5480  162.7888 C.3     1  UNL1        0.0888
     17 N         146.3441  141.8415  163.3128 N.3     1  UNL1       -0.3196
     18 C         144.2550  142.5638  161.9475 C.3     1  UNL1        0.1834
     19 H         146.6354  142.7686  163.0028 H       1  UNL1        0.1189
     20 H         146.9988  141.1436  162.9597 H       1  UNL1        0.1189
     21 C         141.0520  144.2682  162.7139 C.3     1  UNL1        0.2035
     22 C         140.3602  142.5259  164.5128 C.ar    1  UNL1        0.0675
     23 C         139.3240  141.6275  165.1202 C.ar    1  UNL1        0.0101
     24 C         137.9433  141.5729  164.5363 C.ar    1  UNL1        0.0007
     25 C         137.5989  142.4168  163.3449 C.ar    1  UNL1       -0.0002
     26 C         138.6352  143.3152  162.7375 C.ar    1  UNL1       -0.0004
     27 C         140.0158  143.3698  163.3213 C.ar    1  UNL1        0.0251
     28 N         143.1214  142.6352  165.6805 N.1     1  UNL1       -0.1908
     29 C         141.7408  142.5805  165.0966 C.1     1  UNL1        0.1002
@<TRIPOS>BOND
     1    28    29    3
     2    29    22    1
     3    22    23   ar
     4    23    24   ar
     5    24    25   ar
     6    25    26   ar
     7    26    27   ar
     8    27    21    1
     9    21     1    1
    10     1     2    1
    11     2    12    1
    12    12    13    1
    13    13    14    1
    14    14    15    1
    15    15    16    1
    16    16    17    1
    17    16    18    1
    18     2     3    2
    19     3     4    1
    20     4     5    2
    21     5     6    1
    22     6     7    1
    23     6     8    2
    24     8     9    1
    25     9    10    1
    26    10    11    2
    27    27    22   ar
    28    10     1   am
    29    18    12    1
    30     9     4    1
    31    17    19    1
    32    17    20    1
@<TRIPOS>MOLECULE
*****
 29 32 0 0 0
SMALL
GASTEIGER

@<TRIPOS>ATOM
      1 N         141.3152  140.9963  164.7094 N.am    1  UNL1       -0.1350
      2 C         140.6187  142.1967  165.2782 C.2     1  UNL1        0.4244
      3 N         140.6852  142.4747  166.7508 N.2     1  UNL1        0.0251
      4 C         141.4484  141.5522  167.6544 C.2     1  UNL1        0.3719
      5 N         141.6887  141.5692  169.1349 N.2     1  UNL1       -0.0308
      6 C         142.5338  140.3793  169.4810 C.2     1  UNL1        0.2234
      7 BR        143.0129  140.0071  170.8528 Br      1  UNL1        0.0017
      8 C         142.8158  139.6268  168.2144 C.2     1  UNL1        0.0504
      9 C         142.1450  140.3517  167.0855 C.3     1  UNL1        0.2307
     10 C         142.0784  140.0738  165.6129 C.2     1  UNL1        0.3040
     11 O         142.7750  138.8734  165.0440 O.2     1  UNL1       -0.2554
     12 N         139.8554  143.1193  164.3746 N.pl3   1  UNL1       -0.1886
     13 C         138.4218  142.8281  164.0431 C.3     1  UNL1        0.1682
     14 C         137.6586  143.7506  163.1395 C.3     1  UNL1        0.0420
     15 C         138.3291  144.9643  162.5674 C.3     1  UNL1        0.0222
     16 C         139.7627  145.2555  162.8988 C.3     1  UNL1        0.0888
     17 N         140.4333  146.4693  162.3267 N.3     1  UNL1       -0.3196
     18 C         140.5259  144.3330  163.8024 C.3     1  UNL1        0.1834
     19 H         141.3984  146.5107  162.6542 H       1  UNL1        0.1189
     20 H         139.9356  147.3068  162.6287 H       1  UNL1        0.1189
     21 C         141.2487  140.7184  163.2368 C.3     1  UNL1        0.2035
     22 C         139.3890  140.3720  161.4559 C.ar    1  UNL1        0.0675
     23 C         138.2616  139.5557  160.8969 C.ar    1  UNL1        0.0101
     24 C         137.8664  138.2694  161.5598 C.ar    1  UNL1        0.0007
     25 C         138.5986  137.7995  162.7817 C.ar    1  UNL1       -0.0002
     26 C         139.7261  138.6158  163.3406 C.ar    1  UNL1       -0.0004
     27 C         140.1213  139.9021  162.6778 C.ar    1  UNL1        0.0251
     28 N         140.1795  142.9445  160.1302 N.1     1  UNL1       -0.1908
     29 C         139.7842  141.6582  160.7930 C.1     1  UNL1        0.1002
@<TRIPOS>BOND
     1    28    29    3
     2    29    22    1
     3    22    23   ar
     4    23    24   ar
     5    24    25   ar
     6    25    26   ar
     7    26    27   ar
     8    27    21    1
     9    21     1    1
    10     1     2    1
    11     2    12    1
    12    12    13    1
    13    13    14    1
    14    14    15    1
    15    15    16    1
    16    16    17    1
    17    16    18    1
    18     2     3    2
    19     3     4    1
    20     4     5    2
    21     5     6    1
    22     6     7    1
    23     6     8    2
    24     8     9    1
    25     9    10    1
    26    10    11    2
    27    27    22   ar
    28    10     1   am
    29    18    12    1
    30     9     4    1
    31    17    19    1
    32    17    20    1
