@<TRIPOS>MOLECULE
*****
 32 35 0 0 0
SMALL
GASTEIGER

@<TRIPOS>ATOM
      1 O         138.1486  139.1744  168.1970 O.2     1  UNL1       -0.2699
      2 C         139.4771  139.7338  167.7820 C.2     1  UNL1        0.2496
      3 N         139.9972  139.4829  166.3976 N.am    1  UNL1       -0.2660
      4 C         141.3256  140.0423  165.9827 C.3     1  UNL1        0.1160
      5 C         141.8457  139.7913  164.5982 C.3     1  UNL1        0.1197
      6 N         141.0373  138.9809  163.6288 N.am    1  UNL1       -0.2555
      7 C         139.7088  138.4215  164.0438 C.2     1  UNL1        0.2497
      8 O         138.9004  137.6112  163.0744 O.2     1  UNL1       -0.2727
      9 C         139.1887  138.6725  165.4282 C.3     1  UNL1        0.1799
     10 C         140.2855  140.5442  168.7515 C.ar    1  UNL1        0.0581
     11 C         141.3122  139.8743  169.6158 C.ar    1  UNL1        0.0343
     12 C         142.1206  140.6847  170.5852 C.ar    1  UNL1        0.1425
     13 F         143.1474  140.0148  171.4495 F       1  UNL1       -0.2041
     14 C         141.9022  142.1650  170.6903 C.ar    1  UNL1        0.0592
     15 C         140.8755  142.8349  169.8260 C.ar    1  UNL1        0.1425
     16 F         140.6572  144.3152  169.9311 F       1  UNL1       -0.2041
     17 C         140.0672  142.0245  168.8566 C.ar    1  UNL1        0.0343
     18 C         141.5573  138.7300  162.2445 C.ar    1  UNL1        0.0541
     19 C         142.7691  137.8692  162.0431 C.ar    1  UNL1        0.0180
     20 C         143.2891  137.6182  160.6586 C.ar    1  UNL1        0.0382
     21 C         142.5974  138.2281  159.4756 C.ar    1  UNL1        0.1386
     22 C         141.3856  139.0889  159.6770 C.ar    1  UNL1        0.0382
     23 C         140.8656  139.3399  161.0614 C.ar    1  UNL1        0.0180
     24 O         143.1175  137.9772  158.0913 O.3     1  UNL1       -0.4754
     25 C         142.4580  136.9525  157.2166 C.3     1  UNL1        0.2068
     26 C         143.2882  136.0993  156.3039 C.3     1  UNL1        0.0646
     27 C         142.8823  134.6821  156.0268 C.3     1  UNL1        0.0759
     28 N         143.7472  133.5492  156.4939 N.3     1  UNL1       -0.2726
     29 C         144.3925  133.4308  157.8428 C.3     1  UNL1        0.0721
     30 C         145.1628  132.1442  157.8768 C.3     1  UNL1        0.0188
     31 C         144.9937  131.4673  156.5489 C.3     1  UNL1        0.0188
     32 C         144.1187  132.3357  155.6943 C.3     1  UNL1        0.0721
@<TRIPOS>BOND
     1     1     2    2
     2     2    10    1
     3    10    11   ar
     4    11    12   ar
     5    12    13    1
     6    12    14   ar
     7    14    15   ar
     8    15    16    1
     9    15    17   ar
    10     2     3   am
    11     3     4    1
    12     4     5    1
    13     5     6    1
    14     6    18    1
    15    18    19   ar
    16    19    20   ar
    17    20    21   ar
    18    21    24    1
    19    24    25    1
    20    25    26    1
    21    26    27    1
    22    27    28    1
    23    28    29    1
    24    29    30    1
    25    30    31    1
    26    31    32    1
    27    21    22   ar
    28    22    23   ar
    29     6     7   am
    30     7     8    2
    31     7     9    1
    32    17    10   ar
    33     9     3    1
    34    23    18   ar
    35    32    28    1
@<TRIPOS>MOLECULE
*****
 32 35 0 0 0
SMALL
GASTEIGER

@<TRIPOS>ATOM
      1 O         138.2024  139.1329  168.1375 O.2     1  UNL1       -0.2699
      2 C         139.5214  139.6822  167.6811 C.2     1  UNL1        0.2496
      3 N         139.9778  139.4616  166.2694 N.am    1  UNL1       -0.2660
      4 C         141.2969  140.0110  165.8130 C.3     1  UNL1        0.1160
      5 C         141.7532  139.7903  164.4012 C.3     1  UNL1        0.1197
      6 N         140.8905  139.0203  163.4459 N.am    1  UNL1       -0.2555
      7 C         139.5714  138.4709  163.9022 C.2     1  UNL1        0.2497
      8 O         138.7088  137.7009  162.9469 O.2     1  UNL1       -0.2727
      9 C         139.1151  138.6915  165.3139 C.3     1  UNL1        0.1799
     10 C         140.3841  140.4523  168.6366 C.ar    1  UNL1        0.0581
     11 C         140.1923  141.9315  168.7951 C.ar    1  UNL1        0.0343
     12 C         141.0550  142.7014  169.7505 C.ar    1  UNL1        0.1425
     13 F         140.8632  144.1807  169.9091 F       1  UNL1       -0.2041
     14 C         142.1095  141.9922  170.5474 C.ar    1  UNL1        0.0592
     15 C         142.3013  140.5130  170.3889 C.ar    1  UNL1        0.1425
     16 F         143.3558  139.8038  171.1858 F       1  UNL1       -0.2041
     17 C         141.4386  139.7431  169.4335 C.ar    1  UNL1        0.0343
     18 C         141.3469  138.7996  162.0341 C.ar    1  UNL1        0.0541
     19 C         142.4672  137.8439  161.7488 C.ar    1  UNL1        0.0180
     20 C         142.9236  137.6233  160.3370 C.ar    1  UNL1        0.0382
     21 C         142.2596  138.3584  159.2106 C.ar    1  UNL1        0.1386
     22 C         141.1392  139.3141  159.4960 C.ar    1  UNL1        0.0382
     23 C         140.6829  139.5347  160.9077 C.ar    1  UNL1        0.0180
     24 O         142.7160  138.1378  157.7989 O.3     1  UNL1       -0.4754
     25 C         142.2458  136.9334  157.0382 C.3     1  UNL1        0.2068
     26 C         143.2391  135.9240  156.5436 C.3     1  UNL1        0.0646
     27 C         142.8075  134.5104  156.2874 C.3     1  UNL1        0.0759
     28 N         143.7374  133.3747  156.5964 N.3     1  UNL1       -0.2726
     29 C         144.5103  133.1892  157.8684 C.3     1  UNL1        0.0721
     30 C         145.3082  131.9249  157.7457 C.3     1  UNL1        0.0188
     31 C         145.0284  131.3291  156.3978 C.3     1  UNL1        0.0188
     32 C         144.0575  132.2251  155.6875 C.3     1  UNL1        0.0721
@<TRIPOS>BOND
     1     1     2    2
     2     2    10    1
     3    10    11   ar
     4    11    12   ar
     5    12    13    1
     6    12    14   ar
     7    14    15   ar
     8    15    16    1
     9    15    17   ar
    10     2     3   am
    11     3     4    1
    12     4     5    1
    13     5     6    1
    14     6    18    1
    15    18    19   ar
    16    19    20   ar
    17    20    21   ar
    18    21    24    1
    19    24    25    1
    20    25    26    1
    21    26    27    1
    22    27    28    1
    23    28    29    1
    24    29    30    1
    25    30    31    1
    26    31    32    1
    27    21    22   ar
    28    22    23   ar
    29     6     7   am
    30     7     8    2
    31     7     9    1
    32    17    10   ar
    33     9     3    1
    34    23    18   ar
    35    32    28    1
@<TRIPOS>MOLECULE
*****
 32 35 0 0 0
SMALL
GASTEIGER

@<TRIPOS>ATOM
      1 O         138.1649  139.1397  168.1002 O.2     1  UNL1       -0.2699
      2 C         139.4873  139.7382  167.7220 C.2     1  UNL1        0.2496
      3 N         140.0391  139.5274  166.3433 N.am    1  UNL1       -0.2660
      4 C         141.3615  140.1259  165.9650 C.3     1  UNL1        0.1160
      5 C         141.9133  139.9149  164.5862 C.3     1  UNL1        0.1197
      6 N         141.1427  139.1056  163.5857 N.am    1  UNL1       -0.2555
      7 C         139.8203  138.5070  163.9639 C.2     1  UNL1        0.2497
      8 O         139.0497  137.6977  162.9634 O.2     1  UNL1       -0.2727
      9 C         139.2685  138.7179  165.3427 C.3     1  UNL1        0.1799
     10 C         140.2579  140.5477  168.7226 C.ar    1  UNL1        0.0581
     11 C         141.2832  139.8846  169.5937 C.ar    1  UNL1        0.0343
     12 C         142.0537  140.6940  170.5942 C.ar    1  UNL1        0.1425
     13 F         143.0791  140.0309  171.4654 F       1  UNL1       -0.2041
     14 C         141.7989  142.1665  170.7236 C.ar    1  UNL1        0.0592
     15 C         140.7736  142.8296  169.8525 C.ar    1  UNL1        0.1425
     16 F         140.5187  144.3021  169.9819 F       1  UNL1       -0.2041
     17 C         140.0030  142.0202  168.8520 C.ar    1  UNL1        0.0343
     18 C         141.6945  138.8947  162.2069 C.ar    1  UNL1        0.0541
     19 C         141.0522  139.5687  161.0308 C.ar    1  UNL1        0.0180
     20 C         141.6041  139.3578  159.6520 C.ar    1  UNL1        0.0382
     21 C         142.7982  138.4729  159.4494 C.ar    1  UNL1        0.1386
     22 C         143.4404  137.7988  160.6255 C.ar    1  UNL1        0.0382
     23 C         142.8886  138.0097  162.0042 C.ar    1  UNL1        0.0180
     24 O         143.3500  138.2620  158.0706 O.3     1  UNL1       -0.4754
     25 C         142.5399  137.5292  157.0426 C.3     1  UNL1        0.2068
     26 C         143.1724  137.1106  155.7484 C.3     1  UNL1        0.0646
     27 C         144.0744  135.9128  155.7073 C.3     1  UNL1        0.0759
     28 N         143.5154  134.5440  155.9599 N.3     1  UNL1       -0.2726
     29 C         143.8647  133.6476  157.1108 C.3     1  UNL1        0.0721
     30 C         143.0741  132.3809  156.9682 C.3     1  UNL1        0.0188
     31 C         142.2363  132.4943  155.7291 C.3     1  UNL1        0.0188
     32 C         142.5090  133.8312  155.1060 C.3     1  UNL1        0.0721
@<TRIPOS>BOND
     1     1     2    2
     2     2    10    1
     3    10    11   ar
     4    11    12   ar
     5    12    13    1
     6    12    14   ar
     7    14    15   ar
     8    15    16    1
     9    15    17   ar
    10     2     3   am
    11     3     4    1
    12     4     5    1
    13     5     6    1
    14     6    18    1
    15    18    19   ar
    16    19    20   ar
    17    20    21   ar
    18    21    24    1
    19    24    25    1
    20    25    26    1
    21    26    27    1
    22    27    28    1
    23    28    29    1
    24    29    30    1
    25    30    31    1
    26    31    32    1
    27    21    22   ar
    28    22    23   ar
    29     6     7   am
    30     7     8    2
    31     7     9    1
    32    17    10   ar
    33     9     3    1
    34    23    18   ar
    35    32    28    1
@<TRIPOS>MOLECULE
*****
 32 35 0 0 0
SMALL
GASTEIGER

@<TRIPOS>ATOM
      1 O         138.3791  139.1353  168.2020 O.2     1  UNL1       -0.2699
      2 C         139.4361  140.0788  167.7096 C.2     1  UNL1        0.2496
      3 N         139.5385  140.3928  166.2464 N.am    1  UNL1       -0.2660
      4 C         140.5955  141.3364  165.7540 C.3     1  UNL1        0.1160
      5 C         140.6978  141.6504  164.2908 C.3     1  UNL1        0.1197
      6 N         139.7432  141.0209  163.3200 N.am    1  UNL1       -0.2555
      7 C         138.6862  140.0773  163.8125 C.2     1  UNL1        0.2497
      8 O         137.7316  139.4479  162.8417 O.2     1  UNL1       -0.2727
      9 C         138.5838  139.7633  165.2756 C.3     1  UNL1        0.1799
     10 C         140.3908  140.7083  168.6804 C.ar    1  UNL1        0.0581
     11 C         140.3276  142.1834  168.9449 C.ar    1  UNL1        0.0343
     12 C         141.2822  142.8129  169.9156 C.ar    1  UNL1        0.1425
     13 F         141.2191  144.2880  170.1802 F       1  UNL1       -0.2041
     14 C         142.3000  141.9672  170.6220 C.ar    1  UNL1        0.0592
     15 C         142.3632  140.4920  170.3575 C.ar    1  UNL1        0.1425
     16 F         143.3810  139.6464  171.0638 F       1  UNL1       -0.2041
     17 C         141.4086  139.8626  169.3867 C.ar    1  UNL1        0.0343
     18 C         139.8456  141.3349  161.8569 C.ar    1  UNL1        0.0541
     19 C         140.9596  140.7499  161.0404 C.ar    1  UNL1        0.0180
     20 C         141.0620  141.0640  159.5772 C.ar    1  UNL1        0.0382
     21 C         140.0503  141.9630  158.9305 C.ar    1  UNL1        0.1386
     22 C         138.9362  142.5480  159.7470 C.ar    1  UNL1        0.0382
     23 C         138.8339  142.2340  161.2102 C.ar    1  UNL1        0.0180
     24 O         140.1527  142.2771  157.4674 O.3     1  UNL1       -0.4754
     25 C         141.1265  143.3128  156.9889 C.3     1  UNL1        0.2068
     26 C         142.0132  144.0190  157.9713 C.3     1  UNL1        0.0646
     27 C         141.5142  145.2364  158.6918 C.3     1  UNL1        0.0759
     28 N         141.2755  145.1867  160.1718 N.3     1  UNL1       -0.2726
     29 C         142.1022  144.4363  161.1735 C.3     1  UNL1        0.0721
     30 C         141.5059  144.6646  162.5308 C.3     1  UNL1        0.0188
     31 C         140.3105  145.5561  162.3679 C.3     1  UNL1        0.0188
     32 C         140.1682  145.8788  160.9100 C.3     1  UNL1        0.0721
@<TRIPOS>BOND
     1     1     2    2
     2     2    10    1
     3    10    11   ar
     4    11    12   ar
     5    12    13    1
     6    12    14   ar
     7    14    15   ar
     8    15    16    1
     9    15    17   ar
    10     2     3   am
    11     3     4    1
    12     4     5    1
    13     5     6    1
    14     6    18    1
    15    18    19   ar
    16    19    20   ar
    17    20    21   ar
    18    21    24    1
    19    24    25    1
    20    25    26    1
    21    26    27    1
    22    27    28    1
    23    28    29    1
    24    29    30    1
    25    30    31    1
    26    31    32    1
    27    21    22   ar
    28    22    23   ar
    29     6     7   am
    30     7     8    2
    31     7     9    1
    32    17    10   ar
    33     9     3    1
    34    23    18   ar
    35    32    28    1
@<TRIPOS>MOLECULE
*****
 32 35 0 0 0
SMALL
GASTEIGER

@<TRIPOS>ATOM
      1 O         138.4703  139.1599  168.1191 O.2     1  UNL1       -0.2699
      2 C         139.4529  140.1689  167.6028 C.2     1  UNL1        0.2496
      3 N         139.5102  140.4775  166.1361 N.am    1  UNL1       -0.2660
      4 C         140.4929  141.4864  165.6198 C.3     1  UNL1        0.1160
      5 C         140.5502  141.7950  164.1529 C.3     1  UNL1        0.1197
      6 N         139.6249  141.0947  163.2025 N.am    1  UNL1       -0.2555
      7 C         138.6423  140.0858  163.7187 C.2     1  UNL1        0.2497
      8 O         137.7171  139.3855  162.7683 O.2     1  UNL1       -0.2727
      9 C         138.5850  139.7772  165.1855 C.3     1  UNL1        0.1799
     10 C         140.3782  140.8692  168.5534 C.ar    1  UNL1        0.0581
     11 C         141.4842  140.1075  169.2215 C.ar    1  UNL1        0.0343
     12 C         142.4094  140.8078  170.1720 C.ar    1  UNL1        0.1425
     13 F         143.5155  140.0460  170.8402 F       1  UNL1       -0.2041
     14 C         142.2286  142.2698  170.4544 C.ar    1  UNL1        0.0592
     15 C         141.1226  143.0315  169.7862 C.ar    1  UNL1        0.1425
     16 F         140.9417  144.4936  170.0686 F       1  UNL1       -0.2041
     17 C         140.1973  142.3312  168.8357 C.ar    1  UNL1        0.0343
     18 C         139.6823  141.4033  161.7357 C.ar    1  UNL1        0.0541
     19 C         138.6279  142.2669  161.1092 C.ar    1  UNL1        0.0180
     20 C         138.6853  142.5755  159.6423 C.ar    1  UNL1        0.0382
     21 C         139.7971  142.0206  158.8021 C.ar    1  UNL1        0.1386
     22 C         140.8515  141.1570  159.4286 C.ar    1  UNL1        0.0382
     23 C         140.7941  140.8484  160.8954 C.ar    1  UNL1        0.0180
     24 O         139.8544  142.3292  157.3354 O.3     1  UNL1       -0.4754
     25 C         140.5687  143.5576  156.8547 C.3     1  UNL1        0.2068
     26 C         140.3892  144.8602  157.5767 C.3     1  UNL1        0.0646
     27 C         141.4693  145.3694  158.4845 C.3     1  UNL1        0.0759
     28 N         141.3706  145.1488  159.9649 N.3     1  UNL1       -0.2726
     29 C         140.3280  145.7274  160.8749 C.3     1  UNL1        0.0721
     30 C         140.6102  145.2470  162.2676 C.3     1  UNL1        0.0188
     31 C         141.8273  144.3715  162.2183 C.3     1  UNL1        0.0188
     32 C         142.2972  144.3109  160.7951 C.3     1  UNL1        0.0721
@<TRIPOS>BOND
     1     1     2    2
     2     2    10    1
     3    10    11   ar
     4    11    12   ar
     5    12    13    1
     6    12    14   ar
     7    14    15   ar
     8    15    16    1
     9    15    17   ar
    10     2     3   am
    11     3     4    1
    12     4     5    1
    13     5     6    1
    14     6    18    1
    15    18    19   ar
    16    19    20   ar
    17    20    21   ar
    18    21    24    1
    19    24    25    1
    20    25    26    1
    21    26    27    1
    22    27    28    1
    23    28    29    1
    24    29    30    1
    25    30    31    1
    26    31    32    1
    27    21    22   ar
    28    22    23   ar
    29     6     7   am
    30     7     8    2
    31     7     9    1
    32    17    10   ar
    33     9     3    1
    34    23    18   ar
    35    32    28    1
@<TRIPOS>MOLECULE
*****
 32 35 0 0 0
SMALL
GASTEIGER

@<TRIPOS>ATOM
      1 O         143.3399  138.6595  167.8843 O.2     1  UNL1       -0.2699
      2 C         142.5072  139.7992  167.3768 C.2     1  UNL1        0.2496
      3 N         142.5293  140.1534  165.9194 N.am    1  UNL1       -0.2660
      4 C         141.6966  141.2931  165.4118 C.3     1  UNL1        0.1160
      5 C         141.7188  141.6473  163.9543 C.3     1  UNL1        0.1197
      6 N         142.5736  140.8618  163.0045 N.am    1  UNL1       -0.2555
      7 C         143.4063  139.7221  163.5121 C.2     1  UNL1        0.2497
      8 O         144.2612  138.9366  162.5623 O.2     1  UNL1       -0.2727
      9 C         143.3842  139.3679  164.9695 C.3     1  UNL1        0.1799
     10 C         141.6523  140.5847  168.3266 C.ar    1  UNL1        0.0581
     11 C         140.3262  140.0401  168.7679 C.ar    1  UNL1        0.0343
     12 C         139.4714  140.8256  169.7177 C.ar    1  UNL1        0.1425
     13 F         138.1452  140.2810  170.1590 F       1  UNL1       -0.2041
     14 C         139.9427  142.1557  170.2263 C.ar    1  UNL1        0.0592
     15 C         141.2688  142.7003  169.7851 C.ar    1  UNL1        0.1425
     16 F         141.7401  144.0305  170.2937 F       1  UNL1       -0.2041
     17 C         142.1236  141.9148  168.8352 C.ar    1  UNL1        0.0343
     18 C         142.5958  141.2161  161.5472 C.ar    1  UNL1        0.0541
     19 C         141.8635  140.3606  160.5562 C.ar    1  UNL1        0.0180
     20 C         141.8856  140.7149  159.0987 C.ar    1  UNL1        0.0382
     21 C         142.6400  141.9245  158.6323 C.ar    1  UNL1        0.1386
     22 C         143.3723  142.7800  159.6233 C.ar    1  UNL1        0.0382
     23 C         143.3502  142.4258  161.0807 C.ar    1  UNL1        0.0180
     24 O         142.6622  142.2787  157.1750 O.3     1  UNL1       -0.4754
     25 C         141.6051  143.1777  156.6055 C.3     1  UNL1        0.2068
     26 C         140.1569  142.8086  156.7353 C.3     1  UNL1        0.0646
     27 C         139.2480  143.6309  157.5999 C.3     1  UNL1        0.0759
     28 N         139.6593  143.9830  158.9988 N.3     1  UNL1       -0.2726
     29 C         139.3567  143.1868  160.2335 C.3     1  UNL1        0.0721
     30 C         139.9559  143.9047  161.4063 C.3     1  UNL1        0.0188
     31 C         140.6287  145.1446  160.8965 C.3     1  UNL1        0.0188
     32 C         140.4454  145.1930  159.4085 C.3     1  UNL1        0.0721
@<TRIPOS>BOND
     1     1     2    2
     2     2    10    1
     3    10    11   ar
     4    11    12   ar
     5    12    13    1
     6    12    14   ar
     7    14    15   ar
     8    15    16    1
     9    15    17   ar
    10     2     3   am
    11     3     4    1
    12     4     5    1
    13     5     6    1
    14     6    18    1
    15    18    19   ar
    16    19    20   ar
    17    20    21   ar
    18    21    24    1
    19    24    25    1
    20    25    26    1
    21    26    27    1
    22    27    28    1
    23    28    29    1
    24    29    30    1
    25    30    31    1
    26    31    32    1
    27    21    22   ar
    28    22    23   ar
    29     6     7   am
    30     7     8    2
    31     7     9    1
    32    17    10   ar
    33     9     3    1
    34    23    18   ar
    35    32    28    1
@<TRIPOS>MOLECULE
*****
 32 35 0 0 0
SMALL
GASTEIGER

@<TRIPOS>ATOM
      1 O         143.2224  138.8710  168.0041 O.2     1  UNL1       -0.2699
      2 C         142.3644  139.9772  167.4655 C.2     1  UNL1        0.2496
      3 N         142.4025  140.3121  166.0039 N.am    1  UNL1       -0.2660
      4 C         141.5445  141.4184  165.4653 C.3     1  UNL1        0.1160
      5 C         141.5827  141.7533  164.0036 C.3     1  UNL1        0.1197
      6 N         142.4788  140.9820  163.0806 N.am    1  UNL1       -0.2555
      7 C         143.3368  139.8757  163.6192 C.2     1  UNL1        0.2497
      8 O         144.2330  139.1044  162.6962 O.2     1  UNL1       -0.2727
      9 C         143.2987  139.5408  165.0808 C.3     1  UNL1        0.1799
     10 C         141.4682  140.7485  168.3886 C.ar    1  UNL1        0.0581
     11 C         141.8535  142.1304  168.8267 C.ar    1  UNL1        0.0343
     12 C         140.9573  142.9017  169.7497 C.ar    1  UNL1        0.1425
     13 F         141.3425  144.2836  170.1878 F       1  UNL1       -0.2041
     14 C         139.6759  142.2910  170.2347 C.ar    1  UNL1        0.0592
     15 C         139.2907  140.9091  169.7966 C.ar    1  UNL1        0.1425
     16 F         138.0094  140.2985  170.2816 F       1  UNL1       -0.2041
     17 C         140.1869  140.1379  168.8736 C.ar    1  UNL1        0.0343
     18 C         142.5169  141.3169  161.6190 C.ar    1  UNL1        0.0541
     19 C         143.3804  142.4416  161.1295 C.ar    1  UNL1        0.0180
     20 C         143.4185  142.7765  159.6678 C.ar    1  UNL1        0.0382
     21 C         142.5932  141.9867  158.6957 C.ar    1  UNL1        0.1386
     22 C         141.7297  140.8620  159.1852 C.ar    1  UNL1        0.0382
     23 C         141.6916  140.5271  160.6468 C.ar    1  UNL1        0.0180
     24 O         142.6313  142.3216  157.2341 O.3     1  UNL1       -0.4754
     25 C         141.3527  142.4471  156.4598 C.3     1  UNL1        0.2068
     26 C         140.5184  143.6873  156.5855 C.3     1  UNL1        0.0646
     27 C         139.2656  143.6680  157.4101 C.3     1  UNL1        0.0759
     28 N         139.3534  143.6272  158.9070 N.3     1  UNL1       -0.2726
     29 C         140.1546  144.5575  159.7688 C.3     1  UNL1        0.0721
     30 C         139.9519  144.1542  161.1993 C.3     1  UNL1        0.0188
     31 C         139.0255  142.9747  161.2215 C.3     1  UNL1        0.0188
     32 C         138.6556  142.6490  159.8048 C.3     1  UNL1        0.0721
@<TRIPOS>BOND
     1     1     2    2
     2     2    10    1
     3    10    11   ar
     4    11    12   ar
     5    12    13    1
     6    12    14   ar
     7    14    15   ar
     8    15    16    1
     9    15    17   ar
    10     2     3   am
    11     3     4    1
    12     4     5    1
    13     5     6    1
    14     6    18    1
    15    18    19   ar
    16    19    20   ar
    17    20    21   ar
    18    21    24    1
    19    24    25    1
    20    25    26    1
    21    26    27    1
    22    27    28    1
    23    28    29    1
    24    29    30    1
    25    30    31    1
    26    31    32    1
    27    21    22   ar
    28    22    23   ar
    29     6     7   am
    30     7     8    2
    31     7     9    1
    32    17    10   ar
    33     9     3    1
    34    23    18   ar
    35    32    28    1
@<TRIPOS>MOLECULE
*****
 32 35 0 0 0
SMALL
GASTEIGER

@<TRIPOS>ATOM
      1 O         138.3395  140.2783  156.8779 O.2     1  UNL1       -0.2699
      2 C         139.3203  139.4654  157.6699 C.2     1  UNL1        0.2496
      3 N         139.2662  139.4766  159.1688 N.am    1  UNL1       -0.2660
      4 C         140.2470  138.6637  159.9608 C.3     1  UNL1        0.1160
      5 C         140.1929  138.6749  161.4598 C.3     1  UNL1        0.1197
      6 N         139.1580  139.4989  162.1668 N.am    1  UNL1       -0.2555
      7 C         138.1772  140.3118  161.3748 C.2     1  UNL1        0.2497
      8 O         137.1422  141.1358  162.0818 O.2     1  UNL1       -0.2727
      9 C         138.2313  140.3006  159.8759 C.3     1  UNL1        0.1799
     10 C         140.3553  138.6413  156.9628 C.ar    1  UNL1        0.0581
     11 C         141.7263  139.2016  156.7254 C.ar    1  UNL1        0.0343
     12 C         142.7612  138.3776  156.0184 C.ar    1  UNL1        0.1425
     13 F         144.1322  138.9379  155.7810 F       1  UNL1       -0.2041
     14 C         142.4250  136.9932  155.5488 C.ar    1  UNL1        0.0592
     15 C         141.0541  136.4329  155.7862 C.ar    1  UNL1        0.1425
     16 F         140.7179  135.0485  155.3165 F       1  UNL1       -0.2041
     17 C         140.0192  137.2570  156.4932 C.ar    1  UNL1        0.0343
     18 C         139.1039  139.5100  163.6657 C.ar    1  UNL1        0.0541
     19 C         139.3856  140.7774  164.4170 C.ar    1  UNL1        0.0180
     20 C         139.3315  140.7885  165.9161 C.ar    1  UNL1        0.0382
     21 C         138.9956  139.5323  166.6637 C.ar    1  UNL1        0.1386
     22 C         138.7139  138.2649  165.9125 C.ar    1  UNL1        0.0382
     23 C         138.7680  138.2538  164.4135 C.ar    1  UNL1        0.0180
     24 O         138.9415  139.5435  168.1627 O.3     1  UNL1       -0.4754
     25 C         139.9699  140.3057  168.9447 C.3     1  UNL1        0.2068
     26 C         141.3566  139.7543  169.0971 C.3     1  UNL1        0.0646
     27 C         142.5000  140.3858  168.3597 C.3     1  UNL1        0.0759
     28 N         142.6822  140.1256  166.8938 N.3     1  UNL1       -0.2726
     29 C         142.5091  138.8046  166.2046 C.3     1  UNL1        0.0721
     30 C         142.7895  139.0033  164.7445 C.3     1  UNL1        0.0188
     31 C         143.1358  140.4471  164.5313 C.3     1  UNL1        0.0188
     32 C         143.0696  141.1407  165.8596 C.3     1  UNL1        0.0721
@<TRIPOS>BOND
     1     1     2    2
     2     2    10    1
     3    10    11   ar
     4    11    12   ar
     5    12    13    1
     6    12    14   ar
     7    14    15   ar
     8    15    16    1
     9    15    17   ar
    10     2     3   am
    11     3     4    1
    12     4     5    1
    13     5     6    1
    14     6    18    1
    15    18    19   ar
    16    19    20   ar
    17    20    21   ar
    18    21    24    1
    19    24    25    1
    20    25    26    1
    21    26    27    1
    22    27    28    1
    23    28    29    1
    24    29    30    1
    25    30    31    1
    26    31    32    1
    27    21    22   ar
    28    22    23   ar
    29     6     7   am
    30     7     8    2
    31     7     9    1
    32    17    10   ar
    33     9     3    1
    34    23    18   ar
    35    32    28    1
@<TRIPOS>MOLECULE
*****
 32 35 0 0 0
SMALL
GASTEIGER

@<TRIPOS>ATOM
      1 O         144.9990  137.4282  155.4036 O.2     1  UNL1       -0.2699
      2 C         143.6613  137.0897  155.9919 C.2     1  UNL1        0.2496
      3 N         142.9346  138.0979  156.8318 N.am    1  UNL1       -0.2660
      4 C         141.5969  137.7595  157.4201 C.3     1  UNL1        0.1160
      5 C         140.8702  138.7677  158.2600 C.3     1  UNL1        0.1197
      6 N         141.4812  140.1143  158.5116 N.am    1  UNL1       -0.2555
      7 C         142.8189  140.4527  157.9233 C.2     1  UNL1        0.2497
      8 O         143.4298  141.7993  158.1749 O.2     1  UNL1       -0.2727
      9 C         143.5456  139.4446  157.0834 C.3     1  UNL1        0.1799
     10 C         143.0503  135.7430  155.7403 C.ar    1  UNL1        0.0581
     11 C         142.1946  135.5223  154.5283 C.ar    1  UNL1        0.0343
     12 C         141.5837  134.1757  154.2767 C.ar    1  UNL1        0.1425
     13 F         140.7280  133.9549  153.0646 F       1  UNL1       -0.2041
     14 C         141.8285  133.0498  155.2371 C.ar    1  UNL1        0.0592
     15 C         142.6842  133.2705  156.4492 C.ar    1  UNL1        0.1425
     16 F         142.9290  132.1446  157.4096 F       1  UNL1       -0.2041
     17 C         143.2951  134.6171  156.7007 C.ar    1  UNL1        0.0343
     18 C         140.7545  141.1225  159.3515 C.ar    1  UNL1        0.0541
     19 C         139.3820  141.5795  158.9548 C.ar    1  UNL1        0.0180
     20 C         138.6553  142.5877  159.7948 C.ar    1  UNL1        0.0382
     21 C         139.3011  143.1389  161.0314 C.ar    1  UNL1        0.1386
     22 C         140.6736  142.6818  161.4281 C.ar    1  UNL1        0.0382
     23 C         141.4003  141.6737  160.5882 C.ar    1  UNL1        0.0180
     24 O         138.5744  144.1470  161.8713 O.3     1  UNL1       -0.4754
     25 C         137.7030  143.6912  163.0040 C.3     1  UNL1        0.2068
     26 C         137.9589  142.3673  163.6612 C.3     1  UNL1        0.0646
     27 C         137.2942  141.1289  163.1370 C.3     1  UNL1        0.0759
     28 N         138.1232  140.0180  162.5639 N.3     1  UNL1       -0.2726
     29 C         137.7514  139.1522  161.3968 C.3     1  UNL1        0.0721
     30 C         138.8681  138.1770  161.1689 C.3     1  UNL1        0.0188
     31 C         139.9300  138.4400  162.1951 C.3     1  UNL1        0.0188
     32 C         139.4696  139.5778  163.0573 C.3     1  UNL1        0.0721
@<TRIPOS>BOND
     1     1     2    2
     2     2    10    1
     3    10    11   ar
     4    11    12   ar
     5    12    13    1
     6    12    14   ar
     7    14    15   ar
     8    15    16    1
     9    15    17   ar
    10     2     3   am
    11     3     4    1
    12     4     5    1
    13     5     6    1
    14     6    18    1
    15    18    19   ar
    16    19    20   ar
    17    20    21   ar
    18    21    24    1
    19    24    25    1
    20    25    26    1
    21    26    27    1
    22    27    28    1
    23    28    29    1
    24    29    30    1
    25    30    31    1
    26    31    32    1
    27    21    22   ar
    28    22    23   ar
    29     6     7   am
    30     7     8    2
    31     7     9    1
    32    17    10   ar
    33     9     3    1
    34    23    18   ar
    35    32    28    1
