@<TRIPOS>MOLECULE
*****
 35 39 0 0 0
SMALL
GASTEIGER

@<TRIPOS>ATOM
      1 C         137.3558  137.9460  166.8929 C.3     1  UNL1        0.1164
      2 N         138.5312  138.7427  166.4094 N.am    1  UNL1       -0.2638
      3 C         139.3188  139.5786  167.3742 C.2     1  UNL1        0.3078
      4 O         138.9310  139.6177  168.8227 O.2     1  UNL1       -0.2523
      5 N         140.4941  140.3753  166.8906 N.am    1  UNL1       -0.2538
      6 C         140.9983  140.4348  165.4792 C.3     1  UNL1        0.1221
      7 C         142.1874  141.3486  165.4498 C.2     1  UNL1       -0.0024
      8 C         142.4182  141.8538  166.8432 C.2     1  UNL1       -0.0044
      9 C         141.3717  141.2523  167.7337 C.3     1  UNL1        0.1264
     10 C         143.0026  141.6962  164.2396 C.ar    1  UNL1        0.0271
     11 C         143.3514  143.1272  163.9559 C.ar    1  UNL1        0.0316
     12 C         144.1666  143.4747  162.7457 C.ar    1  UNL1        0.1403
     13 F         144.5154  144.9058  162.4620 F       1  UNL1       -0.2042
     14 C         144.6330  142.3912  161.8192 C.ar    1  UNL1        0.0319
     15 C         144.2843  140.9602  162.1028 C.ar    1  UNL1        0.0319
     16 C         143.4691  140.6127  163.3130 C.ar    1  UNL1        0.1400
     17 F         143.1203  139.1816  163.5967 F       1  UNL1       -0.2042
     18 C         142.0606  142.0378  168.8099 C.ar    1  UNL1        0.0002
     19 C         141.2934  143.0508  169.6070 C.ar    1  UNL1       -0.0023
     20 C         141.9824  143.8363  170.6832 C.ar    1  UNL1       -0.0003
     21 C         143.4385  143.6090  170.9623 C.ar    1  UNL1       -0.0000
     22 C         144.2058  142.5962  170.1652 C.ar    1  UNL1       -0.0003
     23 C         143.5169  141.8105  169.0890 C.ar    1  UNL1       -0.0023
     24 C         138.9190  138.7035  164.9609 C.3     1  UNL1        0.0797
     25 C         139.8817  137.6631  164.4700 C.3     1  UNL1        0.0372
     26 C         140.2694  137.6240  163.0215 C.3     1  UNL1        0.0738
     27 N         139.6946  138.6252  162.0639 N.3     1  UNL1       -0.2738
     28 C         138.7319  139.6656  162.5547 C.3     1  UNL1        0.0738
     29 C         138.3441  139.7047  164.0033 C.3     1  UNL1        0.0372
     30 C         140.0823  138.5861  160.6154 C.3     1  UNL1        0.0576
     31 C         139.6946  138.5854  159.1664 C.3     1  UNL1        0.0173
     32 C         141.1418  138.5190  159.5556 C.3     1  UNL1        0.0173
     33 C         140.4693  140.8150  168.8492 C.3     1  UNL1        0.1637
     34 O         141.0396  140.1037  170.0402 O.3     1  UNL1       -0.3796
     35 H         141.3879  139.2411  169.7655 H       1  UNL1        0.2105
@<TRIPOS>BOND
     1     1     2    1
     2     2     3   am
     3     3     4    2
     4     3     5   am
     5     5     6    1
     6     6     7    1
     7     7    10    1
     8    10    11   ar
     9    11    12   ar
    10    12    13    1
    11    12    14   ar
    12    14    15   ar
    13    15    16   ar
    14    16    17    1
    15     7     8    2
    16     8     9    1
    17     9    33    1
    18    33    34    1
    19     9    18    1
    20    18    19   ar
    21    19    20   ar
    22    20    21   ar
    23    21    22   ar
    24    22    23   ar
    25     2    24    1
    26    24    25    1
    27    25    26    1
    28    26    27    1
    29    27    30    1
    30    30    31    1
    31    31    32    1
    32    27    28    1
    33    28    29    1
    34     9     5    1
    35    23    18   ar
    36    29    24    1
    37    16    10   ar
    38    32    30    1
    39    34    35    1
@<TRIPOS>MOLECULE
*****
 35 39 0 0 0
SMALL
GASTEIGER

@<TRIPOS>ATOM
      1 C         137.2994  137.8677  166.9180 C.3     1  UNL1        0.1164
      2 N         138.4347  138.7051  166.4081 N.am    1  UNL1       -0.2638
      3 C         139.2331  139.5457  167.3599 C.2     1  UNL1        0.3078
      4 O         138.8963  139.5488  168.8216 O.2     1  UNL1       -0.2523
      5 N         140.3684  140.3831  166.8501 N.am    1  UNL1       -0.2538
      6 C         140.8201  140.4812  165.4231 C.3     1  UNL1        0.1221
      7 C         141.9821  141.4282  165.3688 C.2     1  UNL1       -0.0024
      8 C         142.2486  141.9152  166.7623 C.2     1  UNL1       -0.0044
      9 C         141.2513  141.2694  167.6778 C.3     1  UNL1        0.1264
     10 C         142.7440  141.8193  164.1372 C.ar    1  UNL1        0.0271
     11 C         143.3692  140.7632  163.2750 C.ar    1  UNL1        0.0316
     12 C         144.1310  141.1544  162.0436 C.ar    1  UNL1        0.1403
     13 F         144.7563  140.0982  161.1813 F       1  UNL1       -0.2042
     14 C         144.2675  142.6018  161.6743 C.ar    1  UNL1        0.0319
     15 C         143.6423  143.6580  162.5365 C.ar    1  UNL1        0.0319
     16 C         142.8805  143.2668  163.7680 C.ar    1  UNL1        0.1400
     17 F         142.2552  144.3230  164.6303 F       1  UNL1       -0.2042
     18 C         141.9565  142.0549  168.7433 C.ar    1  UNL1        0.0002
     19 C         143.4099  141.8072  169.0199 C.ar    1  UNL1       -0.0023
     20 C         144.1150  142.5928  170.0855 C.ar    1  UNL1       -0.0003
     21 C         143.3669  143.6261  170.8746 C.ar    1  UNL1       -0.0000
     22 C         141.9136  143.8739  170.5981 C.ar    1  UNL1       -0.0003
     23 C         141.2083  143.0883  169.5325 C.ar    1  UNL1       -0.0023
     24 C         138.7715  138.7020  164.9464 C.3     1  UNL1        0.0797
     25 C         138.1701  139.7313  164.0359 C.3     1  UNL1        0.0372
     26 C         138.5070  139.7281  162.5742 C.3     1  UNL1        0.0738
     27 N         139.4453  138.6957  162.0230 N.3     1  UNL1       -0.2738
     28 C         140.0467  137.6665  162.9335 C.3     1  UNL1        0.0738
     29 C         139.7098  137.6696  164.3952 C.3     1  UNL1        0.0372
     30 C         139.7822  138.6926  160.5614 C.3     1  UNL1        0.0576
     31 C         140.8011  138.6151  159.4633 C.3     1  UNL1        0.0173
     32 C         139.3467  138.7645  159.1277 C.3     1  UNL1        0.0173
     33 C         140.4014  140.7877  168.8160 C.3     1  UNL1        0.1637
     34 O         141.0335  140.0759  169.9751 O.3     1  UNL1       -0.3796
     35 H         141.3977  139.2286  169.6746 H       1  UNL1        0.2105
@<TRIPOS>BOND
     1     1     2    1
     2     2     3   am
     3     3     4    2
     4     3     5   am
     5     5     6    1
     6     6     7    1
     7     7    10    1
     8    10    11   ar
     9    11    12   ar
    10    12    13    1
    11    12    14   ar
    12    14    15   ar
    13    15    16   ar
    14    16    17    1
    15     7     8    2
    16     8     9    1
    17     9    33    1
    18    33    34    1
    19     9    18    1
    20    18    19   ar
    21    19    20   ar
    22    20    21   ar
    23    21    22   ar
    24    22    23   ar
    25     2    24    1
    26    24    25    1
    27    25    26    1
    28    26    27    1
    29    27    30    1
    30    30    31    1
    31    31    32    1
    32    27    28    1
    33    28    29    1
    34     9     5    1
    35    23    18   ar
    36    29    24    1
    37    16    10   ar
    38    32    30    1
    39    34    35    1
@<TRIPOS>MOLECULE
*****
 35 39 0 0 0
SMALL
GASTEIGER

@<TRIPOS>ATOM
      1 C         145.4542  138.1094  165.2492 C.3     1  UNL1        0.1164
      2 N         144.4571  139.2194  165.0953 N.am    1  UNL1       -0.2638
      3 C         143.5462  139.5725  166.2335 C.2     1  UNL1        0.3078
      4 O         143.6325  138.8157  167.5257 O.2     1  UNL1       -0.2523
      5 N         142.5491  140.6826  166.0796 N.am    1  UNL1       -0.2538
      6 C         142.3482  141.5236  164.8539 C.3     1  UNL1        0.1221
      7 C         141.2528  142.5072  165.1411 C.2     1  UNL1       -0.0024
      8 C         140.7767  142.2741  166.5444 C.2     1  UNL1       -0.0044
      9 C         141.5778  141.1464  167.1244 C.3     1  UNL1        0.1264
     10 C         140.7259  143.5423  164.1918 C.ar    1  UNL1        0.0271
     11 C         139.2500  143.6560  163.9499 C.ar    1  UNL1        0.0316
     12 C         138.7232  144.6910  163.0006 C.ar    1  UNL1        0.1403
     13 F         137.2472  144.8048  162.7586 F       1  UNL1       -0.2042
     14 C         139.6724  145.6123  162.2932 C.ar    1  UNL1        0.0319
     15 C         141.1483  145.4985  162.5351 C.ar    1  UNL1        0.0319
     16 C         141.6751  144.4635  163.4844 C.ar    1  UNL1        0.1400
     17 F         143.1511  144.3497  163.7264 F       1  UNL1       -0.2042
     18 C         140.7374  141.3850  168.3436 C.ar    1  UNL1        0.0002
     19 C         139.8224  140.3078  168.8464 C.ar    1  UNL1       -0.0023
     20 C         138.9820  140.5464  170.0657 C.ar    1  UNL1       -0.0003
     21 C         139.0564  141.8621  170.7822 C.ar    1  UNL1       -0.0000
     22 C         139.9713  142.9392  170.2795 C.ar    1  UNL1       -0.0003
     23 C         140.8118  142.7007  169.0602 C.ar    1  UNL1       -0.0023
     24 C         144.3708  139.9763  163.8031 C.3     1  UNL1        0.0797
     25 C         145.1972  141.2117  163.6010 C.3     1  UNL1        0.0372
     26 C         145.1109  141.9686  162.3087 C.3     1  UNL1        0.0738
     27 N         144.1983  141.4900  161.2187 N.3     1  UNL1       -0.2738
     28 C         143.3719  140.2546  161.4209 C.3     1  UNL1        0.0738
     29 C         143.4582  139.4977  162.7132 C.3     1  UNL1        0.0372
     30 C         144.1120  142.2468  159.9266 C.3     1  UNL1        0.0576
     31 C         144.6741  142.5805  158.5765 C.3     1  UNL1        0.0173
     32 C         143.4002  143.2240  159.0385 C.3     1  UNL1        0.0173
     33 C         142.2033  140.0686  167.9593 C.3     1  UNL1        0.1637
     34 O         142.9705  140.4287  169.1968 O.3     1  UNL1       -0.3796
     35 H         143.7663  140.9257  168.9507 H       1  UNL1        0.2105
@<TRIPOS>BOND
     1     1     2    1
     2     2     3   am
     3     3     4    2
     4     3     5   am
     5     5     6    1
     6     6     7    1
     7     7    10    1
     8    10    11   ar
     9    11    12   ar
    10    12    13    1
    11    12    14   ar
    12    14    15   ar
    13    15    16   ar
    14    16    17    1
    15     7     8    2
    16     8     9    1
    17     9    33    1
    18    33    34    1
    19     9    18    1
    20    18    19   ar
    21    19    20   ar
    22    20    21   ar
    23    21    22   ar
    24    22    23   ar
    25     2    24    1
    26    24    25    1
    27    25    26    1
    28    26    27    1
    29    27    30    1
    30    30    31    1
    31    31    32    1
    32    27    28    1
    33    28    29    1
    34     9     5    1
    35    23    18   ar
    36    29    24    1
    37    16    10   ar
    38    32    30    1
    39    34    35    1
@<TRIPOS>MOLECULE
*****
 35 39 0 0 0
SMALL
GASTEIGER

@<TRIPOS>ATOM
      1 C         138.3337  136.9741  165.3720 C.3     1  UNL1        0.1164
      2 N         139.0332  138.2136  164.8982 N.am    1  UNL1       -0.2638
      3 C         138.8386  138.6929  163.4903 C.2     1  UNL1        0.3078
      4 O         137.9443  137.9328  162.5561 O.2     1  UNL1       -0.2523
      5 N         139.5381  139.9324  163.0165 N.am    1  UNL1       -0.2538
      6 C         140.4579  140.7920  163.8319 C.3     1  UNL1        0.1221
      7 C         140.9289  141.9206  162.9635 C.2     1  UNL1       -0.0024
      8 C         140.3002  141.7586  161.6112 C.2     1  UNL1       -0.0044
      9 C         139.4406  140.5297  161.6439 C.3     1  UNL1        0.1264
     10 C         141.8644  143.0187  163.3749 C.ar    1  UNL1        0.0271
     11 C         143.0775  142.7013  164.1980 C.ar    1  UNL1        0.0316
     12 C         144.0130  143.7993  164.6095 C.ar    1  UNL1        0.1403
     13 F         145.2262  143.4819  165.4326 F       1  UNL1       -0.2042
     14 C         143.7353  145.2147  164.1978 C.ar    1  UNL1        0.0319
     15 C         142.5221  145.5321  163.3747 C.ar    1  UNL1        0.0319
     16 C         141.5867  144.4341  162.9633 C.ar    1  UNL1        0.1400
     17 F         140.3735  144.7515  162.1402 F       1  UNL1       -0.2042
     18 C         139.1509  140.8858  160.2160 C.ar    1  UNL1        0.0002
     19 C         139.4141  139.8891  159.1262 C.ar    1  UNL1       -0.0023
     20 C         139.1242  140.2453  157.6983 C.ar    1  UNL1       -0.0003
     21 C         138.5712  141.5979  157.3599 C.ar    1  UNL1       -0.0000
     22 C         138.3080  142.5945  158.4496 C.ar    1  UNL1       -0.0003
     23 C         138.5978  142.2385  159.8777 C.ar    1  UNL1       -0.0023
     24 C         139.9275  138.9737  165.8323 C.3     1  UNL1        0.0797
     25 C         139.3422  139.9804  166.7778 C.3     1  UNL1        0.0372
     26 C         140.2365  140.7405  167.7120 C.3     1  UNL1        0.0738
     27 N         141.7160  140.4939  167.7006 N.3     1  UNL1       -0.2738
     28 C         142.3013  139.4872  166.7551 C.3     1  UNL1        0.0738
     29 C         141.4070  138.7271  165.8209 C.3     1  UNL1        0.0372
     30 C         142.6103  141.2539  168.6347 C.3     1  UNL1        0.0576
     31 C         143.4419  142.4645  168.9396 C.3     1  UNL1        0.0173
     32 C         143.3277  141.3597  169.9478 C.3     1  UNL1        0.0173
     33 C         138.5205  139.3753  161.3782 C.3     1  UNL1        0.1637
     34 O         137.0975  139.6275  160.9765 O.3     1  UNL1       -0.3796
     35 H         136.6236  140.0470  161.7116 H       1  UNL1        0.2105
@<TRIPOS>BOND
     1     1     2    1
     2     2     3   am
     3     3     4    2
     4     3     5   am
     5     5     6    1
     6     6     7    1
     7     7    10    1
     8    10    11   ar
     9    11    12   ar
    10    12    13    1
    11    12    14   ar
    12    14    15   ar
    13    15    16   ar
    14    16    17    1
    15     7     8    2
    16     8     9    1
    17     9    33    1
    18    33    34    1
    19     9    18    1
    20    18    19   ar
    21    19    20   ar
    22    20    21   ar
    23    21    22   ar
    24    22    23   ar
    25     2    24    1
    26    24    25    1
    27    25    26    1
    28    26    27    1
    29    27    30    1
    30    30    31    1
    31    31    32    1
    32    27    28    1
    33    28    29    1
    34     9     5    1
    35    23    18   ar
    36    29    24    1
    37    16    10   ar
    38    32    30    1
    39    34    35    1
@<TRIPOS>MOLECULE
*****
 35 39 0 0 0
SMALL
GASTEIGER

@<TRIPOS>ATOM
      1 C         139.1770  144.6545  156.4842 C.3     1  UNL1        0.1164
      2 N         140.2410  144.2085  157.4429 N.am    1  UNL1       -0.2638
      3 C         141.5658  143.7328  156.9247 C.2     1  UNL1        0.3078
      4 O         141.8266  143.7030  155.4478 O.2     1  UNL1       -0.2523
      5 N         142.6299  143.2869  157.8833 N.am    1  UNL1       -0.2538
      6 C         142.5147  143.2609  159.3787 C.3     1  UNL1        0.1221
      7 C         143.8095  142.7466  159.9345 C.2     1  UNL1       -0.0024
      8 C         144.7249  142.4548  158.7826 C.2     1  UNL1       -0.0044
      9 C         143.9959  142.7886  157.5149 C.3     1  UNL1        0.1264
     10 C         144.1322  142.5574  161.3871 C.ar    1  UNL1        0.0271
     11 C         144.0846  143.7274  162.3246 C.ar    1  UNL1        0.0316
     12 C         144.4074  143.5382  163.7771 C.ar    1  UNL1        0.1403
     13 F         144.3598  144.7082  164.7146 F       1  UNL1       -0.2042
     14 C         144.7777  142.1789  164.2922 C.ar    1  UNL1        0.0319
     15 C         144.8253  141.0090  163.3548 C.ar    1  UNL1        0.0319
     16 C         144.5025  141.1982  161.9023 C.ar    1  UNL1        0.1400
     17 F         144.5501  140.0282  160.9647 F       1  UNL1       -0.2042
     18 C         145.2650  142.3407  156.8526 C.ar    1  UNL1        0.0002
     19 C         145.2198  141.3071  155.7664 C.ar    1  UNL1       -0.0023
     20 C         146.4888  140.8592  155.1041 C.ar    1  UNL1       -0.0003
     21 C         147.8032  141.4446  155.5280 C.ar    1  UNL1       -0.0000
     22 C         147.8485  142.4781  156.6142 C.ar    1  UNL1       -0.0003
     23 C         146.5794  142.9262  157.2765 C.ar    1  UNL1       -0.0023
     24 C         139.9802  144.2383  158.9197 C.3     1  UNL1        0.0797
     25 C         139.3663  143.0491  159.5971 C.3     1  UNL1        0.0372
     26 C         139.1055  143.0790  161.0740 C.3     1  UNL1        0.0738
     27 N         139.4587  144.2980  161.8735 N.3     1  UNL1       -0.2738
     28 C         140.0726  145.4872  161.1961 C.3     1  UNL1        0.0738
     29 C         140.3334  145.4574  159.7192 C.3     1  UNL1        0.0372
     30 C         139.1979  144.3279  163.3503 C.3     1  UNL1        0.0576
     31 C         139.7061  144.4392  164.7572 C.3     1  UNL1        0.0173
     32 C         138.2380  144.2683  164.5014 C.3     1  UNL1        0.0173
     33 C         143.5322  143.0289  156.1088 C.3     1  UNL1        0.1637
     34 O         144.2979  143.9589  155.2152 O.3     1  UNL1       -0.3796
     35 H         144.2385  144.8627  155.5623 H       1  UNL1        0.2105
@<TRIPOS>BOND
     1     1     2    1
     2     2     3   am
     3     3     4    2
     4     3     5   am
     5     5     6    1
     6     6     7    1
     7     7    10    1
     8    10    11   ar
     9    11    12   ar
    10    12    13    1
    11    12    14   ar
    12    14    15   ar
    13    15    16   ar
    14    16    17    1
    15     7     8    2
    16     8     9    1
    17     9    33    1
    18    33    34    1
    19     9    18    1
    20    18    19   ar
    21    19    20   ar
    22    20    21   ar
    23    21    22   ar
    24    22    23   ar
    25     2    24    1
    26    24    25    1
    27    25    26    1
    28    26    27    1
    29    27    30    1
    30    30    31    1
    31    31    32    1
    32    27    28    1
    33    28    29    1
    34     9     5    1
    35    23    18   ar
    36    29    24    1
    37    16    10   ar
    38    32    30    1
    39    34    35    1
@<TRIPOS>MOLECULE
*****
 35 39 0 0 0
SMALL
GASTEIGER

@<TRIPOS>ATOM
      1 C         137.6223  140.6613  157.8253 C.3     1  UNL1        0.1164
      2 N         138.8675  140.5463  158.6537 N.am    1  UNL1       -0.2638
      3 C         140.2086  140.7980  158.0308 C.2     1  UNL1        0.3078
      4 O         140.3045  141.1646  156.5794 O.2     1  UNL1       -0.2523
      5 N         141.4539  140.6831  158.8592 N.am    1  UNL1       -0.2538
      6 C         141.5146  140.3267  160.3149 C.3     1  UNL1        0.1221
      7 C         142.9552  140.3277  160.7327 C.2     1  UNL1       -0.0024
      8 C         143.7849  140.6847  159.5351 C.2     1  UNL1       -0.0044
      9 C         142.8570  140.9043  158.3772 C.3     1  UNL1        0.1264
     10 C         143.4750  140.0249  162.1068 C.ar    1  UNL1        0.0271
     11 C         142.7770  139.0133  162.9667 C.ar    1  UNL1        0.0316
     12 C         143.2968  138.7105  164.3407 C.ar    1  UNL1        0.1403
     13 F         142.5988  137.6989  165.2006 F       1  UNL1       -0.2042
     14 C         144.5146  139.4194  164.8550 C.ar    1  UNL1        0.0319
     15 C         145.2126  140.4310  163.9951 C.ar    1  UNL1        0.0319
     16 C         144.6928  140.7338  162.6211 C.ar    1  UNL1        0.1400
     17 F         145.3909  141.7454  161.7612 F       1  UNL1       -0.2042
     18 C         144.1213  141.1837  157.6201 C.ar    1  UNL1        0.0002
     19 C         144.5055  140.3186  156.4563 C.ar    1  UNL1       -0.0023
     20 C         145.7698  140.5981  155.6993 C.ar    1  UNL1       -0.0003
     21 C         146.6502  141.7425  156.1058 C.ar    1  UNL1       -0.0000
     22 C         146.2661  142.6075  157.2695 C.ar    1  UNL1       -0.0003
     23 C         145.0017  142.3282  158.0266 C.ar    1  UNL1       -0.0023
     24 C         138.7717  140.1797  160.1051 C.3     1  UNL1        0.0797
     25 C         138.5838  141.2507  161.1384 C.3     1  UNL1        0.0372
     26 C         138.4879  140.8840  162.5898 C.3     1  UNL1        0.0738
     27 N         138.5800  139.4464  163.0078 N.3     1  UNL1       -0.2738
     28 C         138.7678  138.3754  161.9745 C.3     1  UNL1        0.0738
     29 C         138.8637  138.7421  160.5231 C.3     1  UNL1        0.0372
     30 C         138.4841  139.0797  164.4591 C.3     1  UNL1        0.0576
     31 C         138.6394  138.0691  165.5566 C.3     1  UNL1        0.0173
     32 C         138.1628  139.4553  165.8754 C.3     1  UNL1        0.0173
     33 C         142.1935  141.1824  157.0610 C.3     1  UNL1        0.1637
     34 O         142.4219  142.4928  156.3679 O.3     1  UNL1       -0.3796
     35 H         142.0390  143.2097  156.8973 H       1  UNL1        0.2105
@<TRIPOS>BOND
     1     1     2    1
     2     2     3   am
     3     3     4    2
     4     3     5   am
     5     5     6    1
     6     6     7    1
     7     7    10    1
     8    10    11   ar
     9    11    12   ar
    10    12    13    1
    11    12    14   ar
    12    14    15   ar
    13    15    16   ar
    14    16    17    1
    15     7     8    2
    16     8     9    1
    17     9    33    1
    18    33    34    1
    19     9    18    1
    20    18    19   ar
    21    19    20   ar
    22    20    21   ar
    23    21    22   ar
    24    22    23   ar
    25     2    24    1
    26    24    25    1
    27    25    26    1
    28    26    27    1
    29    27    30    1
    30    30    31    1
    31    31    32    1
    32    27    28    1
    33    28    29    1
    34     9     5    1
    35    23    18   ar
    36    29    24    1
    37    16    10   ar
    38    32    30    1
    39    34    35    1
@<TRIPOS>MOLECULE
*****
 35 39 0 0 0
SMALL
GASTEIGER

@<TRIPOS>ATOM
      1 C         141.7812  137.9860  156.6816 C.3     1  UNL1        0.1164
      2 N         141.1696  139.0138  157.5869 N.am    1  UNL1       -0.2638
      3 C         140.7832  140.3573  157.0433 C.2     1  UNL1        0.3078
      4 O         141.0084  140.6730  155.5943 O.2     1  UNL1       -0.2523
      5 N         140.1716  141.3851  157.9486 N.am    1  UNL1       -0.2538
      6 C         139.8874  141.2142  159.4115 C.3     1  UNL1        0.1221
      7 C         139.2770  142.4877  159.9170 C.2     1  UNL1       -0.0024
      8 C         139.1839  143.4457  158.7665 C.2     1  UNL1       -0.0044
      9 C         139.7368  142.7643  157.5500 C.3     1  UNL1        0.1264
     10 C         138.8369  142.7561  161.3257 C.ar    1  UNL1        0.0271
     11 C         139.3852  143.9369  162.0706 C.ar    1  UNL1        0.0316
     12 C         138.9451  144.2053  163.4792 C.ar    1  UNL1        0.1403
     13 F         139.4935  145.3861  164.2242 F       1  UNL1       -0.2042
     14 C         137.9567  143.2928  164.1429 C.ar    1  UNL1        0.0319
     15 C         137.4084  142.1120  163.3980 C.ar    1  UNL1        0.0319
     16 C         137.8485  141.8437  161.9893 C.ar    1  UNL1        0.1400
     17 F         137.3001  140.6628  161.2443 F       1  UNL1       -0.2042
     18 C         139.4030  144.0574  156.8672 C.ar    1  UNL1        0.0002
     19 C         140.1083  145.3199  157.2659 C.ar    1  UNL1       -0.0023
     20 C         139.7744  146.6131  156.5831 C.ar    1  UNL1       -0.0003
     21 C         138.7354  146.6439  155.5017 C.ar    1  UNL1       -0.0000
     22 C         138.0301  145.3815  155.1030 C.ar    1  UNL1       -0.0003
     23 C         138.3639  144.0883  155.7858 C.ar    1  UNL1       -0.0023
     24 C         140.9444  138.6980  159.0359 C.3     1  UNL1        0.0797
     25 C         139.5756  138.3166  159.5165 C.3     1  UNL1        0.0372
     26 C         139.3505  138.0009  160.9656 C.3     1  UNL1        0.0738
     27 N         140.4941  138.0665  161.9340 N.3     1  UNL1       -0.2738
     28 C         141.8629  138.4480  161.4534 C.3     1  UNL1        0.0738
     29 C         142.0880  138.7637  160.0043 C.3     1  UNL1        0.0372
     30 C         140.2690  137.7508  163.3829 C.3     1  UNL1        0.0576
     31 C         140.7836  137.2420  164.6968 C.3     1  UNL1        0.0173
     32 C         139.3642  137.7128  164.5788 C.3     1  UNL1        0.0173
     33 C         140.2199  142.3532  156.1907 C.3     1  UNL1        0.1637
     34 O         141.2407  143.1863  155.4740 O.3     1  UNL1       -0.3796
     35 H         140.8575  144.0502  155.2556 H       1  UNL1        0.2105
@<TRIPOS>BOND
     1     1     2    1
     2     2     3   am
     3     3     4    2
     4     3     5   am
     5     5     6    1
     6     6     7    1
     7     7    10    1
     8    10    11   ar
     9    11    12   ar
    10    12    13    1
    11    12    14   ar
    12    14    15   ar
    13    15    16   ar
    14    16    17    1
    15     7     8    2
    16     8     9    1
    17     9    33    1
    18    33    34    1
    19     9    18    1
    20    18    19   ar
    21    19    20   ar
    22    20    21   ar
    23    21    22   ar
    24    22    23   ar
    25     2    24    1
    26    24    25    1
    27    25    26    1
    28    26    27    1
    29    27    30    1
    30    30    31    1
    31    31    32    1
    32    27    28    1
    33    28    29    1
    34     9     5    1
    35    23    18   ar
    36    29    24    1
    37    16    10   ar
    38    32    30    1
    39    34    35    1
@<TRIPOS>MOLECULE
*****
 35 39 0 0 0
SMALL
GASTEIGER

@<TRIPOS>ATOM
      1 C         139.8165  146.4055  161.6227 C.3     1  UNL1        0.1164
      2 N         139.8441  144.9145  161.7843 N.am    1  UNL1       -0.2638
      3 C         139.7265  144.0273  160.5806 C.2     1  UNL1        0.3078
      4 O         139.5813  144.6311  159.2152 O.2     1  UNL1       -0.2523
      5 N         139.7542  142.5362  160.7422 N.am    1  UNL1       -0.2538
      6 C         139.8932  141.7922  162.0373 C.3     1  UNL1        0.1221
      7 C         139.8726  140.3237  161.7327 C.2     1  UNL1       -0.0024
      8 C         139.7208  140.1600  160.2493 C.2     1  UNL1       -0.0044
      9 C         139.6477  141.5274  159.6372 C.3     1  UNL1        0.1264
     10 C         139.9841  139.2135  162.7353 C.ar    1  UNL1        0.0271
     11 C         138.9732  139.0935  163.8370 C.ar    1  UNL1        0.0316
     12 C         139.0847  137.9835  164.8396 C.ar    1  UNL1        0.1403
     13 F         138.0738  137.8634  165.9413 F       1  UNL1       -0.2042
     14 C         140.2072  136.9934  164.7405 C.ar    1  UNL1        0.0319
     15 C         141.2181  137.1134  163.6389 C.ar    1  UNL1        0.0319
     16 C         141.1066  138.2235  162.6363 C.ar    1  UNL1        0.1400
     17 F         142.1175  138.3435  161.5346 F       1  UNL1       -0.2042
     18 C         139.5203  140.7715  158.3480 C.ar    1  UNL1        0.0002
     19 C         140.6141  139.8420  157.9123 C.ar    1  UNL1       -0.0023
     20 C         140.4867  139.0862  156.6230 C.ar    1  UNL1       -0.0003
     21 C         139.2656  139.2596  155.7693 C.ar    1  UNL1       -0.0000
     22 C         138.1718  140.1891  156.2049 C.ar    1  UNL1       -0.0003
     23 C         138.2992  140.9451  157.4942 C.ar    1  UNL1       -0.0023
     24 C         139.9893  144.3107  163.1497 C.3     1  UNL1        0.0797
     25 C         138.7714  144.0311  163.9796 C.3     1  UNL1        0.0372
     26 C         138.9167  143.4273  165.3450 C.3     1  UNL1        0.0738
     27 N         140.2798  143.1030  165.8806 N.3     1  UNL1       -0.2738
     28 C         141.4977  143.3825  165.0507 C.3     1  UNL1        0.0738
     29 C         141.3524  143.9864  163.6852 C.3     1  UNL1        0.0372
     30 C         140.4250  142.4992  167.2459 C.3     1  UNL1        0.0576
     31 C         140.2609  141.3329  168.1747 C.3     1  UNL1        0.0173
     32 C         140.8409  142.6199  168.6821 C.3     1  UNL1        0.0173
     33 C         139.5479  142.7369  158.7555 C.3     1  UNL1        0.1637
     34 O         140.5300  142.9342  157.6391 O.3     1  UNL1       -0.3796
     35 H         141.4156  143.0754  158.0087 H       1  UNL1        0.2105
@<TRIPOS>BOND
     1     1     2    1
     2     2     3   am
     3     3     4    2
     4     3     5   am
     5     5     6    1
     6     6     7    1
     7     7    10    1
     8    10    11   ar
     9    11    12   ar
    10    12    13    1
    11    12    14   ar
    12    14    15   ar
    13    15    16   ar
    14    16    17    1
    15     7     8    2
    16     8     9    1
    17     9    33    1
    18    33    34    1
    19     9    18    1
    20    18    19   ar
    21    19    20   ar
    22    20    21   ar
    23    21    22   ar
    24    22    23   ar
    25     2    24    1
    26    24    25    1
    27    25    26    1
    28    26    27    1
    29    27    30    1
    30    30    31    1
    31    31    32    1
    32    27    28    1
    33    28    29    1
    34     9     5    1
    35    23    18   ar
    36    29    24    1
    37    16    10   ar
    38    32    30    1
    39    34    35    1
@<TRIPOS>MOLECULE
*****
 35 39 0 0 0
SMALL
GASTEIGER

@<TRIPOS>ATOM
      1 C         138.2263  137.0780  165.8029 C.3     1  UNL1        0.1164
      2 N         138.9734  138.2015  165.1477 N.am    1  UNL1       -0.2638
      3 C         138.8586  138.4160  163.6676 C.2     1  UNL1        0.3078
      4 O         137.9966  137.5069  162.8427 O.2     1  UNL1       -0.2523
      5 N         139.6057  139.5396  163.0123 N.am    1  UNL1       -0.2538
      6 C         140.5012  140.5245  163.7038 C.3     1  UNL1        0.1221
      7 C         141.0375  141.4691  162.6694 C.2     1  UNL1       -0.0024
      8 C         140.4735  141.0681  161.3386 C.2     1  UNL1       -0.0044
      9 C         139.5886  139.8756  161.5505 C.3     1  UNL1        0.1264
     10 C         141.9734  142.6139  162.9216 C.ar    1  UNL1        0.0271
     11 C         141.4317  143.9451  163.3510 C.ar    1  UNL1        0.0316
     12 C         142.3676  145.0897  163.6031 C.ar    1  UNL1        0.1403
     13 F         141.8259  146.4210  164.0326 F       1  UNL1       -0.2042
     14 C         143.8454  144.9033  163.4258 C.ar    1  UNL1        0.0319
     15 C         144.3872  143.5721  162.9963 C.ar    1  UNL1        0.0319
     16 C         143.4512  142.4274  162.7442 C.ar    1  UNL1        0.1400
     17 F         143.9930  141.0962  162.3148 F       1  UNL1       -0.2042
     18 C         139.3773  139.9662  160.0683 C.ar    1  UNL1        0.0002
     19 C         138.7542  141.1941  159.4732 C.ar    1  UNL1       -0.0023
     20 C         138.5429  141.2846  157.9909 C.ar    1  UNL1       -0.0003
     21 C         138.9546  140.1474  157.1037 C.ar    1  UNL1       -0.0000
     22 C         139.5777  138.9195  157.6988 C.ar    1  UNL1       -0.0003
     23 C         139.7891  138.8289  159.1810 C.ar    1  UNL1       -0.0023
     24 C         139.8354  139.1107  165.9726 C.3     1  UNL1        0.0797
     25 C         141.3116  138.8620  166.0679 C.3     1  UNL1        0.0372
     26 C         142.1736  139.7712  166.8928 C.3     1  UNL1        0.0738
     27 N         141.5594  140.9290  167.6224 N.3     1  UNL1       -0.2738
     28 C         140.0832  141.1777  167.5271 C.3     1  UNL1        0.0738
     29 C         139.2212  140.2684  166.7021 C.3     1  UNL1        0.0372
     30 C         142.4213  141.8381  168.4473 C.3     1  UNL1        0.0576
     31 C         142.5882  142.7609  169.6180 C.3     1  UNL1        0.0173
     32 C         143.7474  142.4901  168.7052 C.3     1  UNL1        0.0173
     33 C         138.6596  138.7020  161.4525 C.3     1  UNL1        0.1637
     34 O         137.2236  138.9118  161.0733 O.3     1  UNL1       -0.3796
     35 H         136.7754  139.4159  161.7704 H       1  UNL1        0.2105
@<TRIPOS>BOND
     1     1     2    1
     2     2     3   am
     3     3     4    2
     4     3     5   am
     5     5     6    1
     6     6     7    1
     7     7    10    1
     8    10    11   ar
     9    11    12   ar
    10    12    13    1
    11    12    14   ar
    12    14    15   ar
    13    15    16   ar
    14    16    17    1
    15     7     8    2
    16     8     9    1
    17     9    33    1
    18    33    34    1
    19     9    18    1
    20    18    19   ar
    21    19    20   ar
    22    20    21   ar
    23    21    22   ar
    24    22    23   ar
    25     2    24    1
    26    24    25    1
    27    25    26    1
    28    26    27    1
    29    27    30    1
    30    30    31    1
    31    31    32    1
    32    27    28    1
    33    28    29    1
    34     9     5    1
    35    23    18   ar
    36    29    24    1
    37    16    10   ar
    38    32    30    1
    39    34    35    1
