@<TRIPOS>MOLECULE
*****
 35 38 0 0 0
SMALL
GASTEIGER

@<TRIPOS>ATOM
      1 N         144.5292  141.8897  163.5992 N.3     1  UNL1       -0.2685
      2 C         144.0164  142.8595  164.6222 C.3     1  UNL1        0.1035
      3 C         142.9676  143.8631  164.2446 C.3     1  UNL1        0.1470
      4 C         141.9187  144.8669  163.8670 C.3     1  UNL1        0.1035
      5 N         141.3828  144.9007  162.4664 N.3     1  UNL1       -0.2682
      6 C         141.8957  143.9309  161.4434 C.3     1  UNL1        0.1035
      7 C         142.9445  142.9272  161.8210 C.3     1  UNL1        0.1470
      8 C         143.9933  141.9236  162.1987 C.3     1  UNL1        0.1035
      9 O         142.4316  143.8970  162.8440 O.3     1  UNL1       -0.3530
     10 C         145.5781  140.8859  163.9769 C.3     1  UNL1        0.0737
     11 C         145.2161  139.4362  164.1079 C.3     1  UNL1        0.0362
     12 C         143.7938  139.0391  164.3713 C.3     1  UNL1        0.0929
     13 N         143.4021  138.5004  165.7153 N.3     1  UNL1       -0.1793
     14 H         142.8152  137.6836  165.5455 H       1  UNL1        0.1488
     15 S         142.6611  139.3719  166.6855 S.O2    1  UNL1        0.0602
     16 O         141.9948  140.0782  165.5423 O.2     1  UNL1       -0.1530
     17 O         143.3275  138.6655  167.8288 O.2     1  UNL1       -0.1530
     18 C         140.4383  141.9863  169.5965 C.ar    1  UNL1        0.0685
     19 C         140.8959  140.6200  170.0136 C.ar    1  UNL1        0.0116
     20 C         141.6368  139.7485  169.0433 C.ar    1  UNL1        0.0206
     21 C         141.9201  140.2433  167.6559 C.ar    1  UNL1        0.1220
     22 C         141.4625  141.6096  167.2389 C.ar    1  UNL1        0.0206
     23 C         140.7216  142.4811  168.2091 C.ar    1  UNL1        0.0116
     24 N         138.9563  143.7292  171.5372 N.1     1  UNL1       -0.1908
     25 C         139.6973  142.8577  170.5669 C.1     1  UNL1        0.1004
     26 C         140.3340  145.9044  162.0888 C.3     1  UNL1        0.0771
     27 C         138.8832  145.5257  162.1324 C.3     1  UNL1        0.0482
     28 C         138.4746  144.1804  162.6549 C.ar    1  UNL1        0.0341
     29 C         138.2515  143.9830  164.1250 C.ar    1  UNL1        0.1383
     30 F         138.4369  145.1309  165.0726 F       1  UNL1       -0.2044
     31 C         137.8429  142.6376  164.6476 C.ar    1  UNL1        0.0295
     32 C         137.6575  141.4896  163.7001 C.ar    1  UNL1        0.0046
     33 C         137.8806  141.6871  162.2299 C.ar    1  UNL1        0.0295
     34 C         138.2892  143.0324  161.7074 C.ar    1  UNL1        0.1383
     35 F         138.5124  143.2298  160.2373 F       1  UNL1       -0.2044
@<TRIPOS>BOND
     1    24    25    3
     2    25    18    1
     3    18    19   ar
     4    19    20   ar
     5    20    21   ar
     6    21    15    1
     7    15    16    2
     8    15    17    2
     9    15    13    1
    10    13    12    1
    11    12    11    1
    12    11    10    1
    13    10     1    1
    14     1     2    1
    15     2     3    1
    16     3     4    1
    17     4     5    1
    18     5    26    1
    19    26    27    1
    20    27    28    1
    21    28    29   ar
    22    29    30    1
    23    29    31   ar
    24    31    32   ar
    25    32    33   ar
    26    33    34   ar
    27    34    35    1
    28     5     6    1
    29     6     7    1
    30     7     8    1
    31     7     9    1
    32    21    22   ar
    33    22    23   ar
    34    23    18   ar
    35     8     1    1
    36     9     3    1
    37    34    28   ar
    38    13    14    1
@<TRIPOS>MOLECULE
*****
 35 38 0 0 0
SMALL
GASTEIGER

@<TRIPOS>ATOM
      1 N         139.6424  142.4252  159.7573 N.3     1  UNL1       -0.2685
      2 C         141.0619  142.0552  159.4443 C.3     1  UNL1        0.1035
      3 C         142.1742  142.5331  160.3299 C.3     1  UNL1        0.1470
      4 C         143.2866  143.0110  161.2156 C.3     1  UNL1        0.1035
      5 N         142.9794  143.8589  162.4142 N.3     1  UNL1       -0.2682
      6 C         141.5598  144.2290  162.7271 C.3     1  UNL1        0.1035
      7 C         140.4475  143.7511  161.8415 C.3     1  UNL1        0.1470
      8 C         139.3352  143.2732  160.9559 C.3     1  UNL1        0.1035
      9 O         141.8670  143.3810  161.5285 O.3     1  UNL1       -0.3530
     10 C         138.5300  141.9474  158.8717 C.3     1  UNL1        0.0737
     11 C         138.1318  140.5012  158.8818 C.3     1  UNL1        0.0362
     12 C         138.0034  139.7678  160.1840 C.3     1  UNL1        0.0929
     13 N         137.2399  140.3830  161.3192 N.3     1  UNL1       -0.1793
     14 H         137.1417  141.3753  161.1044 H       1  UNL1        0.1488
     15 S         137.7741  140.2934  162.7179 S.O2    1  UNL1        0.0602
     16 O         137.1356  141.6104  163.0461 O.2     1  UNL1       -0.1530
     17 O         138.4126  138.9764  162.3897 O.2     1  UNL1       -0.1530
     18 C         139.3768  140.0247  166.9142 C.ar    1  UNL1        0.0685
     19 C         138.9193  138.7845  166.2053 C.ar    1  UNL1        0.0116
     20 C         138.3851  138.8740  164.8065 C.ar    1  UNL1        0.0206
     21 C         138.3084  140.2038  164.1167 C.ar    1  UNL1        0.1220
     22 C         138.7658  141.4440  164.8257 C.ar    1  UNL1        0.0206
     23 C         139.3000  141.3544  166.2245 C.ar    1  UNL1        0.0116
     24 N         140.4453  139.8455  169.7118 N.1     1  UNL1       -0.1908
     25 C         139.9110  139.9350  168.3131 C.1     1  UNL1        0.1004
     26 C         144.0917  144.3368  163.2998 C.3     1  UNL1        0.0771
     27 C         144.3393  143.6685  164.6197 C.3     1  UNL1        0.0482
     28 C         144.1822  142.1824  164.7491 C.ar    1  UNL1        0.0341
     29 C         143.0650  141.6154  165.5739 C.ar    1  UNL1        0.1383
     30 F         142.1049  142.5344  166.2693 F       1  UNL1       -0.2044
     31 C         142.9079  140.1292  165.7033 C.ar    1  UNL1        0.0295
     32 C         143.8680  139.2101  165.0079 C.ar    1  UNL1        0.0046
     33 C         144.9853  139.7773  164.1831 C.ar    1  UNL1        0.0295
     34 C         145.1423  141.2634  164.0537 C.ar    1  UNL1        0.1383
     35 F         146.2595  141.8304  163.2290 F       1  UNL1       -0.2044
@<TRIPOS>BOND
     1    24    25    3
     2    25    18    1
     3    18    19   ar
     4    19    20   ar
     5    20    21   ar
     6    21    15    1
     7    15    16    2
     8    15    17    2
     9    15    13    1
    10    13    12    1
    11    12    11    1
    12    11    10    1
    13    10     1    1
    14     1     2    1
    15     2     3    1
    16     3     4    1
    17     4     5    1
    18     5    26    1
    19    26    27    1
    20    27    28    1
    21    28    29   ar
    22    29    30    1
    23    29    31   ar
    24    31    32   ar
    25    32    33   ar
    26    33    34   ar
    27    34    35    1
    28     5     6    1
    29     6     7    1
    30     7     8    1
    31     7     9    1
    32    21    22   ar
    33    22    23   ar
    34    23    18   ar
    35     8     1    1
    36     9     3    1
    37    34    28   ar
    38    13    14    1
@<TRIPOS>MOLECULE
*****
 35 38 0 0 0
SMALL
GASTEIGER

@<TRIPOS>ATOM
      1 N         142.4223  139.9555  159.8641 N.3     1  UNL1       -0.2685
      2 C         143.3676  141.0806  160.1644 C.3     1  UNL1        0.1035
      3 C         142.8352  142.4593  160.4208 C.3     1  UNL1        0.1470
      4 C         142.3028  143.8381  160.6772 C.3     1  UNL1        0.1035
      5 N         140.8250  144.0915  160.6333 N.3     1  UNL1       -0.2682
      6 C         139.8797  142.9663  160.3330 C.3     1  UNL1        0.1035
      7 C         140.4121  141.5876  160.0766 C.3     1  UNL1        0.1470
      8 C         140.9445  140.2089  159.8202 C.3     1  UNL1        0.1035
      9 O         141.3574  142.7128  160.3769 O.3     1  UNL1       -0.3530
     10 C         142.9547  138.5767  159.6077 C.3     1  UNL1        0.0737
     11 C         143.5562  137.7842  160.7303 C.3     1  UNL1        0.0362
     12 C         143.1284  138.0432  162.1445 C.3     1  UNL1        0.0929
     13 N         141.6842  137.9102  162.5275 N.3     1  UNL1       -0.1793
     14 H         141.1444  138.4038  161.8166 H       1  UNL1        0.1488
     15 S         141.2118  138.4154  163.8584 S.O2    1  UNL1        0.0602
     16 O         141.0836  137.0037  164.3488 O.2     1  UNL1       -0.1530
     17 O         141.3399  139.8272  163.3680 O.2     1  UNL1       -0.1530
     18 C         139.7943  139.9313  167.8513 C.ar    1  UNL1        0.0685
     19 C         138.8120  139.3508  166.8777 C.ar    1  UNL1        0.0116
     20 C         139.2844  138.8455  165.5468 C.ar    1  UNL1        0.0206
     21 C         140.7392  138.9207  165.1894 C.ar    1  UNL1        0.1220
     22 C         141.7216  139.5013  166.1630 C.ar    1  UNL1        0.0206
     23 C         141.2492  140.0066  167.4939 C.ar    1  UNL1        0.0116
     24 N         138.8494  140.9420  170.5132 N.1     1  UNL1       -0.1908
     25 C         139.3218  140.4367  169.1823 C.1     1  UNL1        0.1004
     26 C         140.2926  145.4702  160.8896 C.3     1  UNL1        0.0771
     27 C         139.9101  145.8798  162.2811 C.3     1  UNL1        0.0482
     28 C         139.8090  144.8483  163.3654 C.ar    1  UNL1        0.0341
     29 C         138.4920  144.1911  163.6548 C.ar    1  UNL1        0.1383
     30 F         137.2763  144.5654  162.8599 F       1  UNL1       -0.2044
     31 C         138.3908  143.1596  164.7392 C.ar    1  UNL1        0.0295
     32 C         139.6066  142.7853  165.5341 C.ar    1  UNL1        0.0046
     33 C         140.9235  143.4426  165.2447 C.ar    1  UNL1        0.0295
     34 C         141.0247  144.4740  164.1604 C.ar    1  UNL1        0.1383
     35 F         142.3416  145.1312  163.8710 F       1  UNL1       -0.2044
@<TRIPOS>BOND
     1    24    25    3
     2    25    18    1
     3    18    19   ar
     4    19    20   ar
     5    20    21   ar
     6    21    15    1
     7    15    16    2
     8    15    17    2
     9    15    13    1
    10    13    12    1
    11    12    11    1
    12    11    10    1
    13    10     1    1
    14     1     2    1
    15     2     3    1
    16     3     4    1
    17     4     5    1
    18     5    26    1
    19    26    27    1
    20    27    28    1
    21    28    29   ar
    22    29    30    1
    23    29    31   ar
    24    31    32   ar
    25    32    33   ar
    26    33    34   ar
    27    34    35    1
    28     5     6    1
    29     6     7    1
    30     7     8    1
    31     7     9    1
    32    21    22   ar
    33    22    23   ar
    34    23    18   ar
    35     8     1    1
    36     9     3    1
    37    34    28   ar
    38    13    14    1
@<TRIPOS>MOLECULE
*****
 35 38 0 0 0
SMALL
GASTEIGER

@<TRIPOS>ATOM
      1 N         142.0721  139.9478  159.6908 N.3     1  UNL1       -0.2685
      2 C         140.6191  140.3060  159.5895 C.3     1  UNL1        0.1035
      3 C         140.1688  141.7049  159.8900 C.3     1  UNL1        0.1470
      4 C         139.7185  143.1039  160.1906 C.3     1  UNL1        0.1035
      5 N         140.7213  144.1445  160.5924 N.3     1  UNL1       -0.2682
      6 C         142.1744  143.7862  160.6937 C.3     1  UNL1        0.1035
      7 C         142.6247  142.3873  160.3931 C.3     1  UNL1        0.1470
      8 C         143.0749  140.9884  160.0926 C.3     1  UNL1        0.1035
      9 O         141.1716  142.7455  160.2918 O.3     1  UNL1       -0.3530
     10 C         142.5224  138.5488  159.3902 C.3     1  UNL1        0.0737
     11 C         143.1640  137.7205  160.4636 C.3     1  UNL1        0.0362
     12 C         142.7507  137.8969  161.8948 C.3     1  UNL1        0.0929
     13 N         141.2977  138.0201  162.2461 N.3     1  UNL1       -0.1793
     14 H         140.8890  138.6781  161.5825 H       1  UNL1        0.1488
     15 S         140.8936  138.4793  163.6157 S.O2    1  UNL1        0.0602
     16 O         140.9852  137.0682  164.1159 O.2     1  UNL1       -0.1530
     17 O         140.8020  139.8905  163.1156 O.2     1  UNL1       -0.1530
     18 C         139.6814  139.8572  167.7245 C.ar    1  UNL1        0.0685
     19 C         138.6483  139.3224  166.7776 C.ar    1  UNL1        0.0116
     20 C         139.0523  138.8631  165.4081 C.ar    1  UNL1        0.0206
     21 C         140.4895  138.9386  164.9854 C.ar    1  UNL1        0.1220
     22 C         141.5227  139.4735  165.9322 C.ar    1  UNL1        0.0206
     23 C         141.1186  139.9327  167.3018 C.ar    1  UNL1        0.0116
     24 N         138.8733  140.7758  170.4637 N.1     1  UNL1       -0.1908
     25 C         139.2773  140.3165  169.0941 C.1     1  UNL1        0.1004
     26 C         140.2711  145.5434  160.8929 C.3     1  UNL1        0.0771
     27 C         139.8929  145.9250  162.2935 C.3     1  UNL1        0.0482
     28 C         139.8033  144.8732  163.3591 C.ar    1  UNL1        0.0341
     29 C         141.0212  144.5045  164.1532 C.ar    1  UNL1        0.1383
     30 F         142.3288  145.1875  163.8816 F       1  UNL1       -0.2044
     31 C         140.9317  143.4527  165.2189 C.ar    1  UNL1        0.0295
     32 C         139.6241  142.7696  165.4905 C.ar    1  UNL1        0.0046
     33 C         138.4061  143.1385  164.6964 C.ar    1  UNL1        0.0295
     34 C         138.4957  144.1902  163.6307 C.ar    1  UNL1        0.1383
     35 F         137.2778  144.5590  162.8367 F       1  UNL1       -0.2044
@<TRIPOS>BOND
     1    24    25    3
     2    25    18    1
     3    18    19   ar
     4    19    20   ar
     5    20    21   ar
     6    21    15    1
     7    15    16    2
     8    15    17    2
     9    15    13    1
    10    13    12    1
    11    12    11    1
    12    11    10    1
    13    10     1    1
    14     1     2    1
    15     2     3    1
    16     3     4    1
    17     4     5    1
    18     5    26    1
    19    26    27    1
    20    27    28    1
    21    28    29   ar
    22    29    30    1
    23    29    31   ar
    24    31    32   ar
    25    32    33   ar
    26    33    34   ar
    27    34    35    1
    28     5     6    1
    29     6     7    1
    30     7     8    1
    31     7     9    1
    32    21    22   ar
    33    22    23   ar
    34    23    18   ar
    35     8     1    1
    36     9     3    1
    37    34    28   ar
    38    13    14    1
@<TRIPOS>MOLECULE
*****
 35 38 0 0 0
SMALL
GASTEIGER

@<TRIPOS>ATOM
      1 N         141.1080  145.1367  162.1645 N.3     1  UNL1       -0.2685
      2 C         141.6348  144.2215  161.0993 C.3     1  UNL1        0.1035
      3 C         142.7435  143.2620  161.4158 C.3     1  UNL1        0.1470
      4 C         143.8523  142.3025  161.7324 C.3     1  UNL1        0.1035
      5 N         144.4342  142.2583  163.1142 N.3     1  UNL1       -0.2682
      6 C         143.9073  143.1736  164.1795 C.3     1  UNL1        0.1035
      7 C         142.7986  144.1331  163.8629 C.3     1  UNL1        0.1470
      8 C         141.6899  145.0925  163.5464 C.3     1  UNL1        0.1035
      9 O         143.3254  143.2178  162.7977 O.3     1  UNL1       -0.3530
     10 C         139.9993  146.0962  161.8480 C.3     1  UNL1        0.0737
     11 C         138.5777  145.6183  161.8249 C.3     1  UNL1        0.0362
     12 C         138.1055  144.6196  162.8397 C.3     1  UNL1        0.0929
     13 N         138.6305  143.2148  162.8100 N.3     1  UNL1       -0.1793
     14 H         137.8964  142.6347  162.4038 H       1  UNL1        0.1488
     15 S         139.0559  142.5461  164.0835 S.O2    1  UNL1        0.0602
     16 O         137.9349  143.2242  164.8140 O.2     1  UNL1       -0.1530
     17 O         140.1768  141.8680  163.3530 O.2     1  UNL1       -0.1530
     18 C         140.3321  140.5397  167.9039 C.ar    1  UNL1        0.0685
     19 C         140.9580  141.8399  167.4942 C.ar    1  UNL1        0.0116
     20 C         140.5326  142.5087  166.2208 C.ar    1  UNL1        0.0206
     21 C         139.4813  141.8773  165.3570 C.ar    1  UNL1        0.1220
     22 C         138.8554  140.5772  165.7667 C.ar    1  UNL1        0.0206
     23 C         139.2808  139.9084  167.0402 C.ar    1  UNL1        0.0116
     24 N         141.1830  139.2023  170.4509 N.1     1  UNL1       -0.1908
     25 C         140.7576  139.8710  169.1775 C.1     1  UNL1        0.1004
     26 C         145.5429  141.2989  163.4308 C.3     1  UNL1        0.0771
     27 C         145.2614  140.0685  164.2414 C.3     1  UNL1        0.0482
     28 C         143.9819  139.3128  164.0379 C.ar    1  UNL1        0.0341
     29 C         143.6465  138.7562  162.6859 C.ar    1  UNL1        0.1383
     30 F         144.5907  138.9555  161.5376 F       1  UNL1       -0.2044
     31 C         142.3669  138.0004  162.4824 C.ar    1  UNL1        0.0295
     32 C         141.4227  137.8012  163.6308 C.ar    1  UNL1        0.0046
     33 C         141.7581  138.3578  164.9827 C.ar    1  UNL1        0.0295
     34 C         143.0377  139.1135  165.1863 C.ar    1  UNL1        0.1383
     35 F         143.3730  139.6701  166.5382 F       1  UNL1       -0.2044
@<TRIPOS>BOND
     1    24    25    3
     2    25    18    1
     3    18    19   ar
     4    19    20   ar
     5    20    21   ar
     6    21    15    1
     7    15    16    2
     8    15    17    2
     9    15    13    1
    10    13    12    1
    11    12    11    1
    12    11    10    1
    13    10     1    1
    14     1     2    1
    15     2     3    1
    16     3     4    1
    17     4     5    1
    18     5    26    1
    19    26    27    1
    20    27    28    1
    21    28    29   ar
    22    29    30    1
    23    29    31   ar
    24    31    32   ar
    25    32    33   ar
    26    33    34   ar
    27    34    35    1
    28     5     6    1
    29     6     7    1
    30     7     8    1
    31     7     9    1
    32    21    22   ar
    33    22    23   ar
    34    23    18   ar
    35     8     1    1
    36     9     3    1
    37    34    28   ar
    38    13    14    1
@<TRIPOS>MOLECULE
*****
 35 38 0 0 0
SMALL
GASTEIGER

@<TRIPOS>ATOM
      1 N         142.3775  140.1890  168.2461 N.3     1  UNL1       -0.2685
      2 C         142.6497  139.2389  167.1178 C.3     1  UNL1        0.1035
      3 C         143.2553  139.7438  165.8418 C.3     1  UNL1        0.1470
      4 C         143.8611  140.2487  164.5657 C.3     1  UNL1        0.1035
      5 N         144.1946  141.7037  164.4181 N.3     1  UNL1       -0.2682
      6 C         143.9224  142.6538  165.5465 C.3     1  UNL1        0.1035
      7 C         143.3168  142.1489  166.8225 C.3     1  UNL1        0.1470
      8 C         142.7111  141.6440  168.0985 C.3     1  UNL1        0.1035
      9 O         143.5889  141.1988  165.6942 O.3     1  UNL1       -0.3530
     10 C         141.7718  139.6841  169.5222 C.3     1  UNL1        0.0737
     11 C         140.4543  140.2254  169.9926 C.3     1  UNL1        0.0362
     12 C         139.3404  140.4447  169.0122 C.3     1  UNL1        0.0929
     13 N         138.7838  139.2867  168.2381 N.3     1  UNL1       -0.1793
     14 H         139.4110  138.4980  168.3963 H       1  UNL1        0.1488
     15 S         138.5940  139.3982  166.7544 S.O2    1  UNL1        0.0602
     16 O         137.7620  138.1502  166.7670 O.2     1  UNL1       -0.1530
     17 O         139.4261  140.6462  166.7418 O.2     1  UNL1       -0.1530
     18 C         138.0250  139.7329  162.3031 C.ar    1  UNL1        0.0685
     19 C         137.6634  140.8842  163.1941 C.ar    1  UNL1        0.0116
     20 C         137.8531  140.7727  164.6778 C.ar    1  UNL1        0.0206
     21 C         138.4043  139.5098  165.2706 C.ar    1  UNL1        0.1220
     22 C         138.7659  138.3586  164.3796 C.ar    1  UNL1        0.0206
     23 C         138.5762  138.4701  162.8958 C.ar    1  UNL1        0.0116
     24 N         137.6456  139.9561  159.3355 N.1     1  UNL1       -0.1908
     25 C         137.8353  139.8445  160.8193 C.1     1  UNL1        0.1004
     26 C         144.8003  142.2086  163.1421 C.3     1  UNL1        0.0771
     27 C         143.9295  142.8418  162.0976 C.3     1  UNL1        0.0482
     28 C         142.6490  143.5139  162.4956 C.ar    1  UNL1        0.0341
     29 C         142.6778  144.8912  163.0891 C.ar    1  UNL1        0.1383
     30 F         143.9872  145.5963  163.2847 F       1  UNL1       -0.2044
     31 C         141.3972  145.5634  163.4871 C.ar    1  UNL1        0.0295
     32 C         140.0878  144.8583  163.2915 C.ar    1  UNL1        0.0046
     33 C         140.0590  143.4809  162.6979 C.ar    1  UNL1        0.0295
     34 C         141.3396  142.8088  162.3000 C.ar    1  UNL1        0.1383
     35 F         141.3107  141.4316  161.7064 F       1  UNL1       -0.2044
@<TRIPOS>BOND
     1    24    25    3
     2    25    18    1
     3    18    19   ar
     4    19    20   ar
     5    20    21   ar
     6    21    15    1
     7    15    16    2
     8    15    17    2
     9    15    13    1
    10    13    12    1
    11    12    11    1
    12    11    10    1
    13    10     1    1
    14     1     2    1
    15     2     3    1
    16     3     4    1
    17     4     5    1
    18     5    26    1
    19    26    27    1
    20    27    28    1
    21    28    29   ar
    22    29    30    1
    23    29    31   ar
    24    31    32   ar
    25    32    33   ar
    26    33    34   ar
    27    34    35    1
    28     5     6    1
    29     6     7    1
    30     7     8    1
    31     7     9    1
    32    21    22   ar
    33    22    23   ar
    34    23    18   ar
    35     8     1    1
    36     9     3    1
    37    34    28   ar
    38    13    14    1
@<TRIPOS>MOLECULE
*****
 35 38 0 0 0
SMALL
GASTEIGER

@<TRIPOS>ATOM
      1 N         141.5949  141.3992  160.3281 N.3     1  UNL1       -0.2685
      2 C         142.8573  141.9928  160.8793 C.3     1  UNL1        0.1035
      3 C         142.9799  142.2618  162.3499 C.3     1  UNL1        0.1470
      4 C         143.1024  142.5308  163.8205 C.3     1  UNL1        0.1035
      5 N         141.9625  142.2063  164.7399 N.3     1  UNL1       -0.2682
      6 C         140.7000  141.6126  164.1886 C.3     1  UNL1        0.1035
      7 C         140.5775  141.3436  162.7180 C.3     1  UNL1        0.1470
      8 C         140.4550  141.0746  161.2475 C.3     1  UNL1        0.1035
      9 O         141.8400  141.9372  163.2692 O.3     1  UNL1       -0.3530
     10 C         141.4723  141.1302  158.8575 C.3     1  UNL1        0.0737
     11 C         142.0427  139.8709  158.2753 C.3     1  UNL1        0.0362
     12 C         141.8076  138.5557  158.9574 C.3     1  UNL1        0.0929
     13 N         142.8904  137.9404  159.7933 N.3     1  UNL1       -0.1793
     14 H         142.8461  136.9333  159.6377 H       1  UNL1        0.1488
     15 S         142.9011  138.1490  161.2787 S.O2    1  UNL1        0.0602
     16 O         144.2885  138.7122  161.1896 O.2     1  UNL1       -0.1530
     17 O         141.5138  137.5858  161.3678 O.2     1  UNL1       -0.1530
     18 C         142.9330  138.7747  165.7348 C.ar    1  UNL1        0.0685
     19 C         144.1106  139.2008  164.9092 C.ar    1  UNL1        0.0116
     20 C         144.1000  138.9922  163.4238 C.ar    1  UNL1        0.0206
     21 C         142.9118  138.3576  162.7641 C.ar    1  UNL1        0.1220
     22 C         141.7341  137.9316  163.5897 C.ar    1  UNL1        0.0206
     23 C         141.7447  138.1402  165.0751 C.ar    1  UNL1        0.0116
     24 N         142.9544  139.1920  168.7056 N.1     1  UNL1       -0.1908
     25 C         142.9436  138.9834  167.2203 C.1     1  UNL1        0.1004
     26 C         142.0851  142.4753  166.2104 C.3     1  UNL1        0.0771
     27 C         140.8579  142.7549  167.0265 C.3     1  UNL1        0.0482
     28 C         140.5528  141.9177  168.2331 C.ar    1  UNL1        0.0341
     29 C         141.0884  142.3151  169.5766 C.ar    1  UNL1        0.1383
     30 F         141.9291  143.5497  169.7136 F       1  UNL1       -0.2044
     31 C         140.7833  141.4778  170.7833 C.ar    1  UNL1        0.0295
     32 C         139.9425  140.2431  170.6463 C.ar    1  UNL1        0.0046
     33 C         139.4069  139.8457  169.3027 C.ar    1  UNL1        0.0295
     34 C         139.7120  140.6830  168.0961 C.ar    1  UNL1        0.1383
     35 F         139.1764  140.2856  166.7526 F       1  UNL1       -0.2044
@<TRIPOS>BOND
     1    24    25    3
     2    25    18    1
     3    18    19   ar
     4    19    20   ar
     5    20    21   ar
     6    21    15    1
     7    15    16    2
     8    15    17    2
     9    15    13    1
    10    13    12    1
    11    12    11    1
    12    11    10    1
    13    10     1    1
    14     1     2    1
    15     2     3    1
    16     3     4    1
    17     4     5    1
    18     5    26    1
    19    26    27    1
    20    27    28    1
    21    28    29   ar
    22    29    30    1
    23    29    31   ar
    24    31    32   ar
    25    32    33   ar
    26    33    34   ar
    27    34    35    1
    28     5     6    1
    29     6     7    1
    30     7     8    1
    31     7     9    1
    32    21    22   ar
    33    22    23   ar
    34    23    18   ar
    35     8     1    1
    36     9     3    1
    37    34    28   ar
    38    13    14    1
@<TRIPOS>MOLECULE
*****
 35 38 0 0 0
SMALL
GASTEIGER

@<TRIPOS>ATOM
      1 N         140.8550  142.2013  159.3155 N.3     1  UNL1       -0.2685
      2 C         142.3481  142.3407  159.2797 C.3     1  UNL1        0.1035
      3 C         143.0815  142.8636  160.4791 C.3     1  UNL1        0.1470
      4 C         143.8150  143.3866  161.6785 C.3     1  UNL1        0.1035
      5 N         143.0554  143.7701  162.9138 N.3     1  UNL1       -0.2682
      6 C         141.5622  143.6307  162.9496 C.3     1  UNL1        0.1035
      7 C         140.8288  143.1077  161.7502 C.3     1  UNL1        0.1470
      8 C         140.0954  142.5848  160.5508 C.3     1  UNL1        0.1035
      9 O         142.3219  143.2471  161.7143 O.3     1  UNL1       -0.3530
     10 C         140.1215  141.6783  158.1161 C.3     1  UNL1        0.0737
     11 C         140.3618  140.2754  157.6429 C.3     1  UNL1        0.0362
     12 C         140.2645  139.1312  158.6080 C.3     1  UNL1        0.0929
     13 N         141.1312  139.1067  159.8320 N.3     1  UNL1       -0.1793
     14 H         141.7643  138.3137  159.7287 H       1  UNL1        0.1488
     15 S         140.5069  138.9881  161.1907 S.O2    1  UNL1        0.0602
     16 O         139.3177  138.3038  160.5846 O.2     1  UNL1       -0.1530
     17 O         141.6961  139.6725  161.7968 O.2     1  UNL1       -0.1530
     18 C         138.6342  138.6324  165.2671 C.ar    1  UNL1        0.0685
     19 C         138.3647  139.8412  164.4208 C.ar    1  UNL1        0.0116
     20 C         138.9889  139.9598  163.0620 C.ar    1  UNL1        0.0206
     21 C         139.8826  138.8696  162.5496 C.ar    1  UNL1        0.1220
     22 C         140.1522  137.6608  163.3959 C.ar    1  UNL1        0.0206
     23 C         139.5280  137.5422  164.7546 C.ar    1  UNL1        0.0116
     24 N         137.3857  138.3954  167.9846 N.1     1  UNL1       -0.1908
     25 C         138.0100  138.5139  166.6259 C.1     1  UNL1        0.1004
     26 C         143.7888  144.2930  164.1131 C.3     1  UNL1        0.0771
     27 C         144.4046  143.3370  165.0914 C.3     1  UNL1        0.0482
     28 C         144.0603  141.8783  165.0326 C.ar    1  UNL1        0.0341
     29 C         142.8072  141.3765  165.6866 C.ar    1  UNL1        0.1383
     30 F         141.8983  142.3334  166.3995 F       1  UNL1       -0.2044
     31 C         142.4629  139.9177  165.6278 C.ar    1  UNL1        0.0295
     32 C         143.3717  138.9607  164.9150 C.ar    1  UNL1        0.0046
     33 C         144.6249  139.4626  164.2609 C.ar    1  UNL1        0.0295
     34 C         144.9692  140.9213  164.3197 C.ar    1  UNL1        0.1383
     35 F         146.2223  141.4231  163.6656 F       1  UNL1       -0.2044
@<TRIPOS>BOND
     1    24    25    3
     2    25    18    1
     3    18    19   ar
     4    19    20   ar
     5    20    21   ar
     6    21    15    1
     7    15    16    2
     8    15    17    2
     9    15    13    1
    10    13    12    1
    11    12    11    1
    12    11    10    1
    13    10     1    1
    14     1     2    1
    15     2     3    1
    16     3     4    1
    17     4     5    1
    18     5    26    1
    19    26    27    1
    20    27    28    1
    21    28    29   ar
    22    29    30    1
    23    29    31   ar
    24    31    32   ar
    25    32    33   ar
    26    33    34   ar
    27    34    35    1
    28     5     6    1
    29     6     7    1
    30     7     8    1
    31     7     9    1
    32    21    22   ar
    33    22    23   ar
    34    23    18   ar
    35     8     1    1
    36     9     3    1
    37    34    28   ar
    38    13    14    1
@<TRIPOS>MOLECULE
*****
 35 38 0 0 0
SMALL
GASTEIGER

@<TRIPOS>ATOM
      1 N         139.2753  139.5631  160.0524 N.3     1  UNL1       -0.2685
      2 C         138.6808  139.2739  161.3988 C.3     1  UNL1        0.1035
      3 C         138.3103  140.4037  162.3133 C.3     1  UNL1        0.1470
      4 C         137.9398  141.5334  163.2280 C.3     1  UNL1        0.1035
      5 N         138.1639  142.9523  162.7961 N.3     1  UNL1       -0.2682
      6 C         138.7586  143.2415  161.4496 C.3     1  UNL1        0.1035
      7 C         139.1290  142.1117  160.5351 C.3     1  UNL1        0.1470
      8 C         139.4995  140.9820  159.6206 C.3     1  UNL1        0.1035
      9 O         138.5344  141.8226  161.8815 O.3     1  UNL1       -0.3530
     10 C         139.6458  138.4333  159.1378 C.3     1  UNL1        0.0737
     11 C         140.9210  138.4932  158.3503 C.3     1  UNL1        0.0362
     12 C         142.2199  138.7738  159.0463 C.3     1  UNL1        0.0929
     13 N         142.7886  137.7707  160.0057 N.3     1  UNL1       -0.1793
     14 H         142.2543  136.9105  159.8835 H       1  UNL1        0.1488
     15 S         142.8049  138.0651  161.4764 S.O2    1  UNL1        0.0602
     16 O         141.5533  137.2573  161.6519 O.2     1  UNL1       -0.1530
     17 O         144.0565  138.8729  161.3009 O.2     1  UNL1       -0.1530
     18 C         142.8539  138.9484  165.8886 C.ar    1  UNL1        0.0685
     19 C         141.6720  138.2580  165.2750 C.ar    1  UNL1        0.0116
     20 C         141.6557  137.9635  163.8043 C.ar    1  UNL1        0.0206
     21 C         142.8212  138.3595  162.9472 C.ar    1  UNL1        0.1220
     22 C         144.0031  139.0499  163.5608 C.ar    1  UNL1        0.0206
     23 C         144.0194  139.3443  165.0315 C.ar    1  UNL1        0.0116
     24 N         142.8864  139.5371  168.8301 N.1     1  UNL1       -0.1908
     25 C         142.8702  139.2428  167.3594 C.1     1  UNL1        0.1004
     26 C         137.7935  144.0821  163.7106 C.3     1  UNL1        0.0771
     27 C         138.7670  144.5571  164.7483 C.3     1  UNL1        0.0482
     28 C         140.2050  144.1366  164.6759 C.ar    1  UNL1        0.0341
     29 C         140.7034  143.0171  165.5408 C.ar    1  UNL1        0.1383
     30 F         139.7639  142.3180  166.4781 F       1  UNL1       -0.2044
     31 C         142.1415  142.5965  165.4685 C.ar    1  UNL1        0.0295
     32 C         143.0811  143.2956  164.5312 C.ar    1  UNL1        0.0046
     33 C         142.5825  144.4152  163.6663 C.ar    1  UNL1        0.0295
     34 C         141.1445  144.8357  163.7387 C.ar    1  UNL1        0.1383
     35 F         140.6461  145.9553  162.8738 F       1  UNL1       -0.2044
@<TRIPOS>BOND
     1    24    25    3
     2    25    18    1
     3    18    19   ar
     4    19    20   ar
     5    20    21   ar
     6    21    15    1
     7    15    16    2
     8    15    17    2
     9    15    13    1
    10    13    12    1
    11    12    11    1
    12    11    10    1
    13    10     1    1
    14     1     2    1
    15     2     3    1
    16     3     4    1
    17     4     5    1
    18     5    26    1
    19    26    27    1
    20    27    28    1
    21    28    29   ar
    22    29    30    1
    23    29    31   ar
    24    31    32   ar
    25    32    33   ar
    26    33    34   ar
    27    34    35    1
    28     5     6    1
    29     6     7    1
    30     7     8    1
    31     7     9    1
    32    21    22   ar
    33    22    23   ar
    34    23    18   ar
    35     8     1    1
    36     9     3    1
    37    34    28   ar
    38    13    14    1
