@<TRIPOS>MOLECULE
*****
 22 22 0 0 0
SMALL
GASTEIGER

@<TRIPOS>ATOM
      1 C         140.6799  137.3875  163.3361 C.3     1  UNL1        0.1499
      2 C         141.7116  137.6928  164.3814 C.1     1  UNL1       -0.0695
      3 C         142.7432  137.9982  165.4266 C.1     1  UNL1       -0.0425
      4 C         143.7748  138.3036  166.4718 C.3     1  UNL1        0.2811
      5 O         143.3536  138.5651  167.8875 O.3     1  UNL1       -0.4612
      6 C         142.5841  139.8080  168.2236 C.ar    1  UNL1        0.1401
      7 C         141.5771  139.7891  169.3350 C.ar    1  UNL1        0.0378
      8 C         140.8076  141.0320  169.6712 C.ar    1  UNL1        0.0145
      9 C         141.0451  142.2939  168.8959 C.ar    1  UNL1        0.0579
     10 CL        140.2756  143.5368  169.2320 Cl      1  UNL1       -0.0822
     11 C         142.0522  142.3128  167.7844 C.ar    1  UNL1        0.0145
     12 C         142.8217  141.0699  167.4483 C.ar    1  UNL1        0.0378
     13 N         139.2291  137.6456  163.6164 N.3     1  UNL1       -0.2618
     14 C         138.2889  137.9458  162.4869 C.3     1  UNL1        0.0730
     15 C         138.8308  138.2915  161.1317 C.3     1  UNL1        0.0188
     16 C         138.7185  137.6034  165.0262 C.3     1  UNL1        0.0730
     17 C         138.3334  138.8749  165.7228 C.3     1  UNL1        0.0174
     18 C         139.3926  139.8502  166.1431 C.3     1  UNL1        0.0014
     19 C         139.7793  140.9766  165.2311 C.3     1  UNL1        0.0000
     20 C         138.9144  142.1988  165.1401 C.3     1  UNL1        0.0000
     21 C         137.3674  141.4739  163.1829 C.3     1  UNL1        0.0000
     22 C         138.2024  142.5201  163.8596 C.3     1  UNL1        0.0000
@<TRIPOS>BOND
     1    21    22    1
     2    22    20    1
     3    20    19    1
     4    19    18    1
     5    18    17    1
     6    17    16    1
     7    16    13    1
     8    13    14    1
     9    14    15    1
    10    13     1    1
    11     1     2    1
    12     2     3    3
    13     3     4    1
    14     4     5    1
    15     5     6    1
    16     6     7   ar
    17     7     8   ar
    18     8     9   ar
    19     9    10    1
    20     9    11   ar
    21    11    12   ar
    22    12     6   ar
@<TRIPOS>MOLECULE
*****
 22 22 0 0 0
SMALL
GASTEIGER

@<TRIPOS>ATOM
      1 C         137.5349  142.2002  163.6863 C.3     1  UNL1        0.1499
      2 C         137.7347  140.8597  163.0435 C.1     1  UNL1       -0.0695
      3 C         137.9346  139.5192  162.4007 C.1     1  UNL1       -0.0425
      4 C         138.1344  138.1787  161.7579 C.3     1  UNL1        0.2811
      5 O         139.5212  137.6481  161.5454 O.3     1  UNL1       -0.4612
      6 C         140.6082  137.9763  162.5256 C.ar    1  UNL1        0.1401
      7 C         141.6717  138.9694  162.1614 C.ar    1  UNL1        0.0378
      8 C         142.7587  139.2976  163.1416 C.ar    1  UNL1        0.0145
      9 C         142.7822  138.6327  164.4859 C.ar    1  UNL1        0.0579
     10 CL        143.8692  138.9609  165.4661 Cl      1  UNL1       -0.0822
     11 C         141.7187  137.6396  164.8501 C.ar    1  UNL1        0.0145
     12 C         140.6317  137.3114  163.8699 C.ar    1  UNL1        0.0378
     13 N         138.7133  143.0921  163.9428 N.3     1  UNL1       -0.2618
     14 C         138.5024  144.5485  164.2332 C.3     1  UNL1        0.0730
     15 C         138.5213  145.0412  165.6498 C.3     1  UNL1        0.0188
     16 C         140.1026  142.5276  163.9089 C.3     1  UNL1        0.0730
     17 C         140.5893  141.6647  165.0352 C.3     1  UNL1        0.0174
     18 C         140.2772  142.0373  166.4543 C.3     1  UNL1        0.0014
     19 C         139.9797  140.9673  167.4625 C.3     1  UNL1        0.0000
     20 C         139.6615  139.5742  167.0061 C.3     1  UNL1        0.0000
     21 C         137.7759  137.8349  166.5951 C.3     1  UNL1        0.0000
     22 C         138.2848  139.2434  166.5109 C.3     1  UNL1        0.0000
@<TRIPOS>BOND
     1    21    22    1
     2    22    20    1
     3    20    19    1
     4    19    18    1
     5    18    17    1
     6    17    16    1
     7    16    13    1
     8    13    14    1
     9    14    15    1
    10    13     1    1
    11     1     2    1
    12     2     3    3
    13     3     4    1
    14     4     5    1
    15     5     6    1
    16     6     7   ar
    17     7     8   ar
    18     8     9   ar
    19     9    10    1
    20     9    11   ar
    21    11    12   ar
    22    12     6   ar
@<TRIPOS>MOLECULE
*****
 22 22 0 0 0
SMALL
GASTEIGER

@<TRIPOS>ATOM
      1 C         144.5644  143.5680  165.3350 C.3     1  UNL1        0.1499
      2 C         143.7097  142.7440  166.2518 C.1     1  UNL1       -0.0695
      3 C         142.8551  141.9199  167.1686 C.1     1  UNL1       -0.0425
      4 C         142.0004  141.0958  168.0853 C.3     1  UNL1        0.2811
      5 O         141.3902  139.8168  167.5939 O.3     1  UNL1       -0.4612
      6 C         140.5290  139.8200  166.3658 C.ar    1  UNL1        0.1401
      7 C         141.1542  139.6683  165.0108 C.ar    1  UNL1        0.0378
      8 C         140.2930  139.6715  163.7827 C.ar    1  UNL1        0.0145
      9 C         138.8064  139.8264  163.9096 C.ar    1  UNL1        0.0579
     10 CL        137.9452  139.8296  162.6815 Cl      1  UNL1       -0.0822
     11 C         138.1811  139.9780  165.2646 C.ar    1  UNL1        0.0145
     12 C         139.0424  139.9748  166.4927 C.ar    1  UNL1        0.0378
     13 N         144.5775  143.2816  163.8626 N.3     1  UNL1       -0.2618
     14 C         145.3525  142.1116  163.3331 C.3     1  UNL1        0.0730
     15 C         144.7124  140.7568  163.2651 C.3     1  UNL1        0.0188
     16 C         143.8156  144.1651  162.9198 C.3     1  UNL1        0.0730
     17 C         142.7226  145.0510  163.4401 C.3     1  UNL1        0.0174
     18 C         141.2923  144.6081  163.3519 C.3     1  UNL1        0.0014
     19 C         140.8521  143.3523  164.0441 C.3     1  UNL1        0.0000
     20 C         139.8886  143.4266  165.1915 C.3     1  UNL1        0.0000
     21 C         137.8047  143.3964  163.6404 C.3     1  UNL1        0.0000
     22 C         138.4501  143.7701  164.9418 C.3     1  UNL1        0.0000
@<TRIPOS>BOND
     1    21    22    1
     2    22    20    1
     3    20    19    1
     4    19    18    1
     5    18    17    1
     6    17    16    1
     7    16    13    1
     8    13    14    1
     9    14    15    1
    10    13     1    1
    11     1     2    1
    12     2     3    3
    13     3     4    1
    14     4     5    1
    15     5     6    1
    16     6     7   ar
    17     7     8   ar
    18     8     9   ar
    19     9    10    1
    20     9    11   ar
    21    11    12   ar
    22    12     6   ar
@<TRIPOS>MOLECULE
*****
 22 22 0 0 0
SMALL
GASTEIGER

@<TRIPOS>ATOM
      1 C         140.1380  141.6661  163.9229 C.3     1  UNL1        0.1499
      2 C         139.6250  140.8791  165.0923 C.1     1  UNL1       -0.0695
      3 C         139.1120  140.0922  166.2618 C.1     1  UNL1       -0.0425
      4 C         138.5989  139.3052  167.4312 C.3     1  UNL1        0.2811
      5 O         138.9668  139.7109  168.8276 O.3     1  UNL1       -0.4612
      6 C         140.2708  140.4049  169.0881 C.ar    1  UNL1        0.1401
      7 C         140.3747  141.8923  168.9241 C.ar    1  UNL1        0.0378
      8 C         141.6788  142.5863  169.1846 C.ar    1  UNL1        0.0145
      9 C         142.8789  141.7929  169.6090 C.ar    1  UNL1        0.0579
     10 CL        144.1829  142.4870  169.8695 Cl      1  UNL1       -0.0822
     11 C         142.7750  140.3056  169.7730 C.ar    1  UNL1        0.0145
     12 C         141.4710  139.6116  169.5125 C.ar    1  UNL1        0.0378
     13 N         141.3810  142.4939  164.0633 N.3     1  UNL1       -0.2618
     14 C         141.9353  143.2221  162.8748 C.3     1  UNL1        0.0730
     15 C         141.9809  144.7214  162.8681 C.3     1  UNL1        0.0188
     16 C         142.0697  142.5935  165.3921 C.3     1  UNL1        0.0730
     17 C         143.2030  141.6674  165.7208 C.3     1  UNL1        0.0174
     18 C         142.9204  140.2534  166.1338 C.3     1  UNL1        0.0014
     19 C         143.5895  139.1159  165.4208 C.3     1  UNL1        0.0000
     20 C         143.2274  138.8053  163.9987 C.3     1  UNL1        0.0000
     21 C         141.2035  137.2914  164.5998 C.3     1  UNL1        0.0000
     22 C         141.8665  138.2657  163.6720 C.3     1  UNL1        0.0000
@<TRIPOS>BOND
     1    21    22    1
     2    22    20    1
     3    20    19    1
     4    19    18    1
     5    18    17    1
     6    17    16    1
     7    16    13    1
     8    13    14    1
     9    14    15    1
    10    13     1    1
    11     1     2    1
    12     2     3    3
    13     3     4    1
    14     4     5    1
    15     5     6    1
    16     6     7   ar
    17     7     8   ar
    18     8     9   ar
    19     9    10    1
    20     9    11   ar
    21    11    12   ar
    22    12     6   ar
@<TRIPOS>MOLECULE
*****
 22 22 0 0 0
SMALL
GASTEIGER

@<TRIPOS>ATOM
      1 C         137.3499  141.8875  163.0795 C.3     1  UNL1        0.1499
      2 C         137.7811  140.8989  164.1220 C.1     1  UNL1       -0.0695
      3 C         138.2122  139.9103  165.1644 C.1     1  UNL1       -0.0425
      4 C         138.6434  138.9216  166.2069 C.3     1  UNL1        0.2811
      5 O         138.8037  139.3575  167.6332 O.3     1  UNL1       -0.4612
      6 C         140.0211  140.1287  168.0494 C.ar    1  UNL1        0.1401
      7 C         139.9117  141.1926  169.1011 C.ar    1  UNL1        0.0378
      8 C         141.1290  141.9638  169.5174 C.ar    1  UNL1        0.0145
      9 C         142.4558  141.6711  168.8819 C.ar    1  UNL1        0.0579
     10 CL        143.6732  142.4423  169.2982 Cl      1  UNL1       -0.0822
     11 C         142.5653  140.6072  167.8302 C.ar    1  UNL1        0.0145
     12 C         141.3479  139.8360  167.4139 C.ar    1  UNL1        0.0378
     13 N         138.1005  143.1753  162.9112 N.3     1  UNL1       -0.2618
     14 C         138.9897  143.3749  161.7198 C.3     1  UNL1        0.0730
     15 C         138.7294  142.6138  160.4537 C.3     1  UNL1        0.0188
     16 C         137.9619  144.2634  163.9342 C.3     1  UNL1        0.0730
     17 C         139.1140  144.5971  164.8351 C.3     1  UNL1        0.0174
     18 C         139.7294  143.5308  165.6919 C.3     1  UNL1        0.0014
     19 C         141.0245  142.8944  165.2824 C.3     1  UNL1        0.0000
     20 C         141.8066  143.4577  164.1330 C.3     1  UNL1        0.0000
     21 C         143.7155  144.9782  163.2420 C.3     1  UNL1        0.0000
     22 C         142.8981  144.4550  164.3857 C.3     1  UNL1        0.0000
@<TRIPOS>BOND
     1    21    22    1
     2    22    20    1
     3    20    19    1
     4    19    18    1
     5    18    17    1
     6    17    16    1
     7    16    13    1
     8    13    14    1
     9    14    15    1
    10    13     1    1
    11     1     2    1
    12     2     3    3
    13     3     4    1
    14     4     5    1
    15     5     6    1
    16     6     7   ar
    17     7     8   ar
    18     8     9   ar
    19     9    10    1
    20     9    11   ar
    21    11    12   ar
    22    12     6   ar
@<TRIPOS>MOLECULE
*****
 22 22 0 0 0
SMALL
GASTEIGER

@<TRIPOS>ATOM
      1 C         141.1748  141.3628  163.7227 C.3     1  UNL1        0.1499
      2 C         140.3501  140.7297  164.8039 C.1     1  UNL1       -0.0695
      3 C         139.5254  140.0965  165.8851 C.1     1  UNL1       -0.0425
      4 C         138.7008  139.4634  166.9664 C.3     1  UNL1        0.2811
      5 O         139.0860  139.6416  168.4050 O.3     1  UNL1       -0.4612
      6 C         140.3474  140.3722  168.7587 C.ar    1  UNL1        0.1401
      7 C         141.5934  139.6031  169.0843 C.ar    1  UNL1        0.0378
      8 C         142.8548  140.3336  169.4381 C.ar    1  UNL1        0.0145
      9 C         142.8702  141.8333  169.4662 C.ar    1  UNL1        0.0579
     10 CL        144.1317  142.5638  169.8199 Cl      1  UNL1       -0.0822
     11 C         141.6243  142.6023  169.1406 C.ar    1  UNL1        0.0145
     12 C         140.3629  141.8718  168.7868 C.ar    1  UNL1        0.0378
     13 N         142.3047  142.2816  164.0821 N.3     1  UNL1       -0.2618
     14 C         142.7900  142.3548  165.4995 C.3     1  UNL1        0.0730
     15 C         144.0614  143.0833  165.8203 C.3     1  UNL1        0.0188
     16 C         142.9493  143.1273  163.0241 C.3     1  UNL1        0.0730
     17 C         142.4177  144.4996  162.7337 C.3     1  UNL1        0.0174
     18 C         141.4860  145.1637  163.7036 C.3     1  UNL1        0.0014
     19 C         140.0023  145.0563  163.5117 C.3     1  UNL1        0.0000
     20 C         139.1109  144.7920  164.6889 C.3     1  UNL1        0.0000
     21 C         137.6518  143.0991  163.3643 C.3     1  UNL1        0.0000
     22 C         138.1707  143.6235  164.6703 C.3     1  UNL1        0.0000
@<TRIPOS>BOND
     1    21    22    1
     2    22    20    1
     3    20    19    1
     4    19    18    1
     5    18    17    1
     6    17    16    1
     7    16    13    1
     8    13    14    1
     9    14    15    1
    10    13     1    1
    11     1     2    1
    12     2     3    3
    13     3     4    1
    14     4     5    1
    15     5     6    1
    16     6     7   ar
    17     7     8   ar
    18     8     9   ar
    19     9    10    1
    20     9    11   ar
    21    11    12   ar
    22    12     6   ar
@<TRIPOS>MOLECULE
*****
 22 22 0 0 0
SMALL
GASTEIGER

@<TRIPOS>ATOM
      1 C         137.6998  143.2293  162.6257 C.3     1  UNL1        0.1499
      2 C         137.7732  141.7481  162.4002 C.1     1  UNL1       -0.0695
      3 C         137.8466  140.2670  162.1747 C.1     1  UNL1       -0.0425
      4 C         137.9200  138.7859  161.9492 C.3     1  UNL1        0.2811
      5 O         139.2494  138.1247  161.7355 O.3     1  UNL1       -0.4612
      6 C         140.3303  138.2633  162.7663 C.ar    1  UNL1        0.1401
      7 C         140.6011  137.1415  163.7245 C.ar    1  UNL1        0.0378
      8 C         141.6820  137.2801  164.7553 C.ar    1  UNL1        0.0145
      9 C         142.4920  138.5404  164.8278 C.ar    1  UNL1        0.0579
     10 CL        143.5729  138.6790  165.8586 Cl      1  UNL1       -0.0822
     11 C         142.2212  139.6622  163.8696 C.ar    1  UNL1        0.0145
     12 C         141.1403  139.5236  162.8389 C.ar    1  UNL1        0.0378
     13 N         138.9571  144.0180  162.8432 N.3     1  UNL1       -0.2618
     14 C         140.0319  144.0196  161.7968 C.3     1  UNL1        0.0730
     15 C         141.2620  143.1819  161.9840 C.3     1  UNL1        0.0188
     16 C         139.1395  144.8052  164.1069 C.3     1  UNL1        0.0730
     17 C         139.2649  144.0943  165.4218 C.3     1  UNL1        0.0174
     18 C         140.4064  143.1504  165.6583 C.3     1  UNL1        0.0014
     19 C         140.1663  141.8417  166.3506 C.3     1  UNL1        0.0000
     20 C         139.2090  140.8471  165.7635 C.3     1  UNL1        0.0000
     21 C         137.8666  138.7933  166.6176 C.3     1  UNL1        0.0000
     22 C         139.1778  139.4399  166.2819 C.3     1  UNL1        0.0000
@<TRIPOS>BOND
     1    21    22    1
     2    22    20    1
     3    20    19    1
     4    19    18    1
     5    18    17    1
     6    17    16    1
     7    16    13    1
     8    13    14    1
     9    14    15    1
    10    13     1    1
    11     1     2    1
    12     2     3    3
    13     3     4    1
    14     4     5    1
    15     5     6    1
    16     6     7   ar
    17     7     8   ar
    18     8     9   ar
    19     9    10    1
    20     9    11   ar
    21    11    12   ar
    22    12     6   ar
@<TRIPOS>MOLECULE
*****
 22 22 0 0 0
SMALL
GASTEIGER

@<TRIPOS>ATOM
      1 C         141.9361  144.5004  164.0408 C.3     1  UNL1        0.1499
      2 C         143.1440  143.6323  163.8469 C.1     1  UNL1       -0.0695
      3 C         144.3519  142.7643  163.6531 C.1     1  UNL1       -0.0425
      4 C         145.5598  141.8963  163.4593 C.3     1  UNL1        0.2811
      5 O         145.6100  140.5316  164.0798 O.3     1  UNL1       -0.4612
      6 C         144.3623  139.7045  164.1748 C.ar    1  UNL1        0.1401
      7 C         143.6749  139.5332  165.4970 C.ar    1  UNL1        0.0378
      8 C         142.4272  138.7061  165.5920 C.ar    1  UNL1        0.0145
      9 C         141.8668  138.0503  164.3649 C.ar    1  UNL1        0.0579
     10 CL        140.6191  137.2232  164.4599 Cl      1  UNL1       -0.0822
     11 C         142.5542  138.2216  163.0428 C.ar    1  UNL1        0.0145
     12 C         143.8019  139.0487  162.9477 C.ar    1  UNL1        0.0378
     13 N         140.5858  144.0150  163.6036 N.3     1  UNL1       -0.2618
     14 C         139.3546  144.7861  163.9770 C.3     1  UNL1        0.0730
     15 C         137.9977  144.2373  163.6490 C.3     1  UNL1        0.0188
     16 C         140.4667  142.7585  162.7930 C.3     1  UNL1        0.0730
     17 C         140.5285  141.4210  163.4693 C.3     1  UNL1        0.0174
     18 C         139.2775  140.6133  163.6498 C.3     1  UNL1        0.0014
     19 C         138.4513  140.7775  164.8909 C.3     1  UNL1        0.0000
     20 C         138.1494  139.5882  165.7538 C.3     1  UNL1        0.0000
     21 C         139.7594  140.4601  167.5969 C.3     1  UNL1        0.0000
     22 C         138.9372  139.3523  167.0082 C.3     1  UNL1        0.0000
@<TRIPOS>BOND
     1    21    22    1
     2    22    20    1
     3    20    19    1
     4    19    18    1
     5    18    17    1
     6    17    16    1
     7    16    13    1
     8    13    14    1
     9    14    15    1
    10    13     1    1
    11     1     2    1
    12     2     3    3
    13     3     4    1
    14     4     5    1
    15     5     6    1
    16     6     7   ar
    17     7     8   ar
    18     8     9   ar
    19     9    10    1
    20     9    11   ar
    21    11    12   ar
    22    12     6   ar
@<TRIPOS>MOLECULE
*****
 22 22 0 0 0
SMALL
GASTEIGER

@<TRIPOS>ATOM
      1 C         137.6804  141.8998  163.3080 C.3     1  UNL1        0.1499
      2 C         138.1336  140.4765  163.4454 C.1     1  UNL1       -0.0695
      3 C         138.5869  139.0532  163.5827 C.1     1  UNL1       -0.0425
      4 C         139.0401  137.6299  163.7201 C.3     1  UNL1        0.2811
      5 O         140.1837  137.2915  164.6298 O.3     1  UNL1       -0.4612
      6 C         141.4873  138.0218  164.4994 C.ar    1  UNL1        0.1401
      7 C         142.1895  138.5275  165.7246 C.ar    1  UNL1        0.0378
      8 C         143.4932  139.2579  165.5942 C.ar    1  UNL1        0.0145
      9 C         144.0947  139.4826  164.2386 C.ar    1  UNL1        0.0579
     10 CL        145.3983  140.2129  164.1083 Cl      1  UNL1       -0.0822
     11 C         143.3925  138.9769  163.0134 C.ar    1  UNL1        0.0145
     12 C         142.0888  138.2465  163.1438 C.ar    1  UNL1        0.0378
     13 N         138.6921  143.0026  163.2068 N.3     1  UNL1       -0.2618
     14 C         138.3851  144.3565  163.7750 C.3     1  UNL1        0.0730
     15 C         138.7287  144.6666  165.2017 C.3     1  UNL1        0.0188
     16 C         140.0108  142.7516  162.5375 C.3     1  UNL1        0.0730
     17 C         141.0671  141.9498  163.2385 C.3     1  UNL1        0.0174
     18 C         141.2495  142.0834  164.7213 C.3     1  UNL1        0.0014
     19 C         142.4783  142.7465  165.2691 C.3     1  UNL1        0.0000
     20 C         143.4981  143.3258  164.3339 C.3     1  UNL1        0.0000
     21 C         142.1914  145.4968  163.7605 C.3     1  UNL1        0.0000
     22 C         143.4891  144.7948  164.0310 C.3     1  UNL1        0.0000
@<TRIPOS>BOND
     1    21    22    1
     2    22    20    1
     3    20    19    1
     4    19    18    1
     5    18    17    1
     6    17    16    1
     7    16    13    1
     8    13    14    1
     9    14    15    1
    10    13     1    1
    11     1     2    1
    12     2     3    3
    13     3     4    1
    14     4     5    1
    15     5     6    1
    16     6     7   ar
    17     7     8   ar
    18     8     9   ar
    19     9    10    1
    20     9    11   ar
    21    11    12   ar
    22    12     6   ar
