@<TRIPOS>MOLECULE
*****
 29 32 0 0 0
SMALL
GASTEIGER

@<TRIPOS>ATOM
      1 C         143.1514  137.6750  156.7282 C.3     1  UNL1        0.1834
      2 C         143.3979  139.1538  156.7772 C.3     1  UNL1        0.1130
      3 N         142.2711  139.7866  157.5386 N.3     1  UNL1       -0.2882
      4 C         141.3281  138.6990  157.9603 C.3     1  UNL1        0.1355
      5 C         141.8721  137.3939  157.4594 C.3     1  UNL1        0.0700
      6 H         141.7835  140.4557  156.9428 H       1  UNL1        0.1237
      7 C         140.0632  138.8839  158.7449 C.2     1  UNL1        0.2401
      8 O         138.8005  139.2938  158.0466 O.2     1  UNL1       -0.2734
      9 N         140.0609  138.6588  160.2280 N.am    1  UNL1       -0.2770
     10 C         141.3748  138.2518  160.8264 C.3     1  UNL1        0.0949
     11 C         141.6973  137.9559  162.2613 C.3     1  UNL1        0.0388
     12 C         140.7857  137.9941  163.4517 C.3     1  UNL1        0.0739
     13 N         139.3263  138.3375  163.5017 N.3     1  UNL1       -0.2725
     14 C         138.4182  138.7276  162.3733 C.3     1  UNL1        0.0938
     15 C         138.7452  138.8706  160.9164 C.3     1  UNL1        0.1107
     16 C         138.6912  138.2837  164.8594 C.3     1  UNL1        0.0576
     17 C         138.4046  139.4593  165.7460 C.3     1  UNL1        0.0160
     18 C         137.7674  138.9471  167.0036 C.3     1  UNL1        0.0014
     19 C         137.6600  137.4549  166.8942 C.3     1  UNL1        0.0014
     20 C         138.2310  137.0450  165.5691 C.3     1  UNL1        0.0160
     21 O         144.0298  136.6562  156.0646 O.3     1  UNL1       -0.4777
     22 C         142.6459  132.3901  155.6965 C.ar    1  UNL1        0.0686
     23 C         142.4441  133.3451  154.5575 C.ar    1  UNL1        0.0134
     24 C         142.9053  134.7670  154.6802 C.ar    1  UNL1        0.0376
     25 C         143.5685  135.2341  155.9419 C.ar    1  UNL1        0.1385
     26 C         143.7704  134.2793  157.0809 C.ar    1  UNL1        0.0376
     27 C         143.3091  132.8572  156.9582 C.ar    1  UNL1        0.0134
     28 N         141.7233  129.5461  155.4511 N.1     1  UNL1       -0.1908
     29 C         142.1846  130.9681  155.5738 C.1     1  UNL1        0.1004
@<TRIPOS>BOND
     1    28    29    3
     2    29    22    1
     3    22    23   ar
     4    23    24   ar
     5    24    25   ar
     6    25    21    1
     7     1    21    1
     8     1     2    1
     9     2     3    1
    10     3     4    1
    11     4     7    1
    12     7     8    2
    13     7     9   am
    14     9    10    1
    15    10    11    1
    16    11    12    1
    17    12    13    1
    18    13    16    1
    19    16    17    1
    20    17    18    1
    21    18    19    1
    22    19    20    1
    23    13    14    1
    24    14    15    1
    25     4     5    1
    26    25    26   ar
    27    26    27   ar
    28    27    22   ar
    29     5     1    1
    30    15     9    1
    31    20    16    1
    32     3     6    1
@<TRIPOS>MOLECULE
*****
 29 32 0 0 0
SMALL
GASTEIGER

@<TRIPOS>ATOM
      1 C         139.2738  140.2722  163.3807 C.3     1  UNL1        0.1834
      2 C         137.8676  140.7393  163.6136 C.3     1  UNL1        0.1130
      3 N         137.2747  141.1052  162.2853 N.3     1  UNL1       -0.2882
      4 C         138.3144  140.8643  161.2314 C.3     1  UNL1        0.1355
      5 C         139.5500  140.3495  161.9084 C.3     1  UNL1        0.0700
      6 H         137.0041  142.0887  162.2862 H       1  UNL1        0.1237
      7 C         138.1479  141.0973  159.7590 C.2     1  UNL1        0.2401
      8 O         137.4123  140.0953  158.9195 O.2     1  UNL1       -0.2734
      9 N         138.7171  142.3324  159.1260 N.am    1  UNL1       -0.2770
     10 C         139.4333  143.2683  160.0541 C.3     1  UNL1        0.0949
     11 C         140.1041  144.5713  159.7339 C.3     1  UNL1        0.0388
     12 C         140.2244  145.2600  158.4070 C.3     1  UNL1        0.0739
     13 N         139.7036  144.8160  157.0721 N.3     1  UNL1       -0.2725
     14 C         138.9339  143.5736  156.7348 C.3     1  UNL1        0.0938
     15 C         138.4949  142.4683  157.6489 C.3     1  UNL1        0.1107
     16 C         139.9904  145.7361  155.9228 C.3     1  UNL1        0.0576
     17 C         140.8826  145.4364  154.7548 C.3     1  UNL1        0.0160
     18 C         140.8790  146.6326  153.8497 C.3     1  UNL1        0.0014
     19 C         139.9846  147.6716  154.4584 C.3     1  UNL1        0.0014
     20 C         139.4354  147.1176  155.7396 C.3     1  UNL1        0.0160
     21 O         140.2351  139.8091  164.4350 O.3     1  UNL1       -0.4777
     22 C         140.0353  141.5461  168.5815 C.ar    1  UNL1        0.0686
     23 C         139.4948  140.1721  168.3170 C.ar    1  UNL1        0.0134
     24 C         139.5614  139.5931  166.9349 C.ar    1  UNL1        0.0376
     25 C         140.1685  140.3882  165.8172 C.ar    1  UNL1        0.1385
     26 C         140.7090  141.7621  166.0816 C.ar    1  UNL1        0.0376
     27 C         140.6424  142.3411  167.4637 C.ar    1  UNL1        0.0134
     28 N         139.9022  142.7041  171.3457 N.1     1  UNL1       -0.1908
     29 C         139.9687  142.1251  169.9636 C.1     1  UNL1        0.1004
@<TRIPOS>BOND
     1    28    29    3
     2    29    22    1
     3    22    23   ar
     4    23    24   ar
     5    24    25   ar
     6    25    21    1
     7     1    21    1
     8     1     2    1
     9     2     3    1
    10     3     4    1
    11     4     7    1
    12     7     8    2
    13     7     9   am
    14     9    10    1
    15    10    11    1
    16    11    12    1
    17    12    13    1
    18    13    16    1
    19    16    17    1
    20    17    18    1
    21    18    19    1
    22    19    20    1
    23    13    14    1
    24    14    15    1
    25     4     5    1
    26    25    26   ar
    27    26    27   ar
    28    27    22   ar
    29     5     1    1
    30    15     9    1
    31    20    16    1
    32     3     6    1
@<TRIPOS>MOLECULE
*****
 29 32 0 0 0
SMALL
GASTEIGER

@<TRIPOS>ATOM
      1 C         140.3504  145.5933  156.9492 C.3     1  UNL1        0.1834
      2 C         141.7565  146.1141  156.9898 C.3     1  UNL1        0.1130
      3 N         142.5472  145.2417  157.9191 N.3     1  UNL1       -0.2882
      4 C         141.6299  144.1817  158.4529 C.3     1  UNL1        0.1355
      5 C         140.2722  144.3990  157.8534 C.3     1  UNL1        0.0700
      6 H         142.9156  145.8004  158.6889 H       1  UNL1        0.1237
      7 C         142.0045  143.0953  159.4168 C.2     1  UNL1        0.2401
      8 O         142.4979  141.7749  158.9039 O.2     1  UNL1       -0.2734
      9 N         141.8856  143.3291  160.8937 N.am    1  UNL1       -0.2770
     10 C         141.3825  144.6827  161.2998 C.3     1  UNL1        0.0949
     11 C         141.1551  145.2199  162.6818 C.3     1  UNL1        0.0388
     12 C         141.3746  144.5364  163.9987 C.3     1  UNL1        0.0739
     13 N         141.8758  143.1467  164.2592 N.3     1  UNL1       -0.2725
     14 C         142.2811  142.0974  163.2669 C.3     1  UNL1        0.0938
     15 C         142.2855  142.1787  161.7691 C.3     1  UNL1        0.1107
     16 C         141.9861  142.7545  165.7027 C.3     1  UNL1        0.0576
     17 C         140.8445  142.5938  166.6625 C.3     1  UNL1        0.0160
     18 C         141.4102  142.1941  167.9930 C.3     1  UNL1        0.0014
     19 C         142.9014  142.1079  167.8555 C.3     1  UNL1        0.0014
     20 C         143.2573  142.4542  166.4401 C.3     1  UNL1        0.0160
     21 O         139.2208  146.1662  156.1455 O.3     1  UNL1       -0.4777
     22 C         138.8850  150.6194  155.5924 C.ar    1  UNL1        0.0686
     23 C         138.4403  149.9877  156.8781 C.ar    1  UNL1        0.0134
     24 C         138.5523  148.5033  157.0625 C.ar    1  UNL1        0.0376
     25 C         139.1089  147.6506  155.9611 C.ar    1  UNL1        0.1385
     26 C         139.5536  148.2823  154.6754 C.ar    1  UNL1        0.0376
     27 C         139.4416  149.7667  154.4910 C.ar    1  UNL1        0.0134
     28 N         138.6612  153.5883  155.2236 N.1     1  UNL1       -0.1908
     29 C         138.7731  152.1039  155.4080 C.1     1  UNL1        0.1004
@<TRIPOS>BOND
     1    28    29    3
     2    29    22    1
     3    22    23   ar
     4    23    24   ar
     5    24    25   ar
     6    25    21    1
     7     1    21    1
     8     1     2    1
     9     2     3    1
    10     3     4    1
    11     4     7    1
    12     7     8    2
    13     7     9   am
    14     9    10    1
    15    10    11    1
    16    11    12    1
    17    12    13    1
    18    13    16    1
    19    16    17    1
    20    17    18    1
    21    18    19    1
    22    19    20    1
    23    13    14    1
    24    14    15    1
    25     4     5    1
    26    25    26   ar
    27    26    27   ar
    28    27    22   ar
    29     5     1    1
    30    15     9    1
    31    20    16    1
    32     3     6    1
@<TRIPOS>MOLECULE
*****
 29 32 0 0 0
SMALL
GASTEIGER

@<TRIPOS>ATOM
      1 C         139.0430  141.9692  163.6247 C.3     1  UNL1        0.1834
      2 C         137.6537  142.4133  163.2746 C.3     1  UNL1        0.1130
      3 N         137.7622  143.5839  162.3429 N.3     1  UNL1       -0.2882
      4 C         139.2185  143.8632  162.1172 C.3     1  UNL1        0.1355
      5 C         140.0101  142.8653  162.9094 C.3     1  UNL1        0.0700
      6 H         137.3136  144.4000  162.7588 H       1  UNL1        0.1237
      7 C         139.7840  144.9497  161.2513 C.2     1  UNL1        0.2401
      8 O         140.0377  146.3116  161.8266 O.2     1  UNL1       -0.2734
      9 N         140.0959  144.6743  159.8102 N.am    1  UNL1       -0.2770
     10 C         139.8051  143.2812  159.3361 C.3     1  UNL1        0.0949
     11 C         140.0039  142.6981  157.9684 C.3     1  UNL1        0.0388
     12 C         140.5426  143.3641  156.7371 C.3     1  UNL1        0.0739
     13 N         141.0156  144.7777  156.5693 N.3     1  UNL1       -0.2725
     14 C         141.0666  145.8744  157.5913 C.3     1  UNL1        0.0938
     15 C         140.6573  145.8283  159.0337 C.3     1  UNL1        0.1107
     16 C         141.5018  145.1428  155.1981 C.3     1  UNL1        0.0576
     17 C         140.7111  145.8599  154.1441 C.3     1  UNL1        0.0160
     18 C         141.5846  146.0153  152.9347 C.3     1  UNL1        0.0014
     19 C         142.9152  145.3943  153.2412 C.3     1  UNL1        0.0014
     20 C         142.8640  144.8551  154.6400 C.3     1  UNL1        0.0160
     21 O         139.4021  140.8292  164.5310 O.3     1  UNL1       -0.4777
     22 C         140.1509  141.5812  168.9040 C.ar    1  UNL1        0.0686
     23 C         140.4563  142.6494  167.8963 C.ar    1  UNL1        0.0134
     24 C         140.2067  142.3987  166.4386 C.ar    1  UNL1        0.0376
     25 C         139.6517  141.0798  165.9887 C.ar    1  UNL1        0.1385
     26 C         139.3463  140.0116  166.9964 C.ar    1  UNL1        0.0376
     27 C         139.5959  140.2623  168.4541 C.ar    1  UNL1        0.0134
     28 N         140.6501  142.0825  171.8195 N.1     1  UNL1       -0.1908
     29 C         140.4005  141.8318  170.3618 C.1     1  UNL1        0.1004
@<TRIPOS>BOND
     1    28    29    3
     2    29    22    1
     3    22    23   ar
     4    23    24   ar
     5    24    25   ar
     6    25    21    1
     7     1    21    1
     8     1     2    1
     9     2     3    1
    10     3     4    1
    11     4     7    1
    12     7     8    2
    13     7     9   am
    14     9    10    1
    15    10    11    1
    16    11    12    1
    17    12    13    1
    18    13    16    1
    19    16    17    1
    20    17    18    1
    21    18    19    1
    22    19    20    1
    23    13    14    1
    24    14    15    1
    25     4     5    1
    26    25    26   ar
    27    26    27   ar
    28    27    22   ar
    29     5     1    1
    30    15     9    1
    31    20    16    1
    32     3     6    1
@<TRIPOS>MOLECULE
*****
 29 32 0 0 0
SMALL
GASTEIGER

@<TRIPOS>ATOM
      1 C         143.8046  142.3659  164.0031 C.3     1  UNL1        0.1834
      2 C         145.2845  142.1466  163.8945 C.3     1  UNL1        0.1130
      3 N         145.6123  141.9031  162.4512 N.3     1  UNL1       -0.2882
      4 C         144.3351  141.9718  161.6677 C.3     1  UNL1        0.1355
      5 C         143.2178  142.2579  162.6268 C.3     1  UNL1        0.0700
      6 H         146.0355  140.9813  162.3431 H       1  UNL1        0.1237
      7 C         144.1989  141.7870  160.1854 C.2     1  UNL1        0.2401
      8 O         144.4539  142.9392  159.2594 O.2     1  UNL1       -0.2734
      9 N         143.8077  140.4501  159.6290 N.am    1  UNL1       -0.2770
     10 C         143.5762  139.3668  160.6405 C.3     1  UNL1        0.0949
     11 C         143.1795  137.9390  160.4076 C.3     1  UNL1        0.0388
     12 C         142.9165  137.2420  159.1058 C.3     1  UNL1        0.0739
     13 N         142.9851  137.8004  157.7153 N.3     1  UNL1       -0.2725
     14 C         143.3337  139.1939  157.2832 C.3     1  UNL1        0.0938
     15 C         143.6998  140.3731  158.1350 C.3     1  UNL1        0.1107
     16 C         142.6624  136.8382  156.6108 C.3     1  UNL1        0.0576
     17 C         143.6578  136.1039  155.7622 C.3     1  UNL1        0.0160
     18 C         142.8983  135.2532  154.7879 C.3     1  UNL1        0.0014
     19 C         141.4334  135.4616  155.0344 C.3     1  UNL1        0.0014
     20 C         141.2876  136.4412  156.1609 C.3     1  UNL1        0.0160
     21 O         143.0448  142.6443  165.2662 O.3     1  UNL1       -0.4777
     22 C         139.6049  139.9968  166.4527 C.ar    1  UNL1        0.0686
     23 C         141.0025  139.6405  166.8648 C.ar    1  UNL1        0.0134
     24 C         142.1491  140.5230  166.4693 C.ar    1  UNL1        0.0376
     25 C         141.8982  141.7618  165.6616 C.ar    1  UNL1        0.1385
     26 C         140.5007  142.1182  165.2495 C.ar    1  UNL1        0.0376
     27 C         139.3540  141.2357  165.6450 C.ar    1  UNL1        0.0134
     28 N         137.3116  138.2319  167.2436 N.1     1  UNL1       -0.1908
     29 C         138.4583  139.1144  166.8481 C.1     1  UNL1        0.1004
@<TRIPOS>BOND
     1    28    29    3
     2    29    22    1
     3    22    23   ar
     4    23    24   ar
     5    24    25   ar
     6    25    21    1
     7     1    21    1
     8     1     2    1
     9     2     3    1
    10     3     4    1
    11     4     7    1
    12     7     8    2
    13     7     9   am
    14     9    10    1
    15    10    11    1
    16    11    12    1
    17    12    13    1
    18    13    16    1
    19    16    17    1
    20    17    18    1
    21    18    19    1
    22    19    20    1
    23    13    14    1
    24    14    15    1
    25     4     5    1
    26    25    26   ar
    27    26    27   ar
    28    27    22   ar
    29     5     1    1
    30    15     9    1
    31    20    16    1
    32     3     6    1
@<TRIPOS>MOLECULE
*****
 29 32 0 0 0
SMALL
GASTEIGER

@<TRIPOS>ATOM
      1 C         140.6295  145.9234  157.0303 C.3     1  UNL1        0.1834
      2 C         142.0678  145.7135  157.4004 C.3     1  UNL1        0.1130
      3 N         142.1278  145.3936  158.8646 N.3     1  UNL1       -0.2882
      4 C         140.7265  145.4059  159.3996 C.3     1  UNL1        0.1355
      5 C         139.8004  145.7333  158.2659 C.3     1  UNL1        0.0700
      6 H         142.6894  146.0938  159.3492 H       1  UNL1        0.1237
      7 C         140.3222  145.1378  160.8189 C.2     1  UNL1        0.2401
      8 O         140.1389  146.2790  161.7749 O.2     1  UNL1       -0.2734
      9 N         140.1011  143.7284  161.2824 N.am    1  UNL1       -0.2770
     10 C         140.3109  142.6627  160.2478 C.3     1  UNL1        0.0949
     11 C         140.1709  141.1764  160.3944 C.3     1  UNL1        0.0388
     12 C         139.7865  140.3889  161.6117 C.3     1  UNL1        0.0739
     13 N         139.4473  140.8929  162.9831 N.3     1  UNL1       -0.2725
     14 C         139.4086  142.3091  163.4759 C.3     1  UNL1        0.0938
     15 C         139.6996  143.5710  162.7189 C.3     1  UNL1        0.1107
     16 C         139.1009  139.8419  163.9956 C.3     1  UNL1        0.0576
     17 C         139.4010  138.3765  163.8833 C.3     1  UNL1        0.0160
     18 C         138.8792  137.7005  165.1165 C.3     1  UNL1        0.0014
     19 C         138.2566  138.7482  165.9910 C.3     1  UNL1        0.0014
     20 C         138.3936  140.0716  165.2983 C.3     1  UNL1        0.0160
     21 O         140.1111  146.2638  155.6645 O.3     1  UNL1       -0.4777
     22 C         139.0220  150.5142  154.6659 C.ar    1  UNL1        0.0686
     23 C         138.5044  149.8832  155.9244 C.ar    1  UNL1        0.0134
     24 C         138.8674  148.4664  156.2572 C.ar    1  UNL1        0.0376
     25 C         139.7481  147.6806  155.3316 C.ar    1  UNL1        0.1385
     26 C         140.2657  148.3116  154.0732 C.ar    1  UNL1        0.0376
     27 C         139.9028  149.7284  153.7403 C.ar    1  UNL1        0.0134
     28 N         138.2961  153.3479  154.0001 N.1     1  UNL1       -0.1908
     29 C         138.6591  151.9311  154.3330 C.1     1  UNL1        0.1004
@<TRIPOS>BOND
     1    28    29    3
     2    29    22    1
     3    22    23   ar
     4    23    24   ar
     5    24    25   ar
     6    25    21    1
     7     1    21    1
     8     1     2    1
     9     2     3    1
    10     3     4    1
    11     4     7    1
    12     7     8    2
    13     7     9   am
    14     9    10    1
    15    10    11    1
    16    11    12    1
    17    12    13    1
    18    13    16    1
    19    16    17    1
    20    17    18    1
    21    18    19    1
    22    19    20    1
    23    13    14    1
    24    14    15    1
    25     4     5    1
    26    25    26   ar
    27    26    27   ar
    28    27    22   ar
    29     5     1    1
    30    15     9    1
    31    20    16    1
    32     3     6    1
@<TRIPOS>MOLECULE
*****
 29 32 0 0 0
SMALL
GASTEIGER

@<TRIPOS>ATOM
      1 C         137.9221  140.3507  159.3753 C.3     1  UNL1        0.1834
      2 C         137.1437  139.5704  160.3927 C.3     1  UNL1        0.1130
      3 N         137.2091  140.3119  161.6949 N.3     1  UNL1       -0.2882
      4 C         138.0280  141.5505  161.4824 C.3     1  UNL1        0.1355
      5 C         138.4687  141.5745  160.0488 C.3     1  UNL1        0.0700
      6 H         137.6465  139.7254  162.4056 H       1  UNL1        0.1237
      7 C         138.3497  142.5837  162.5211 C.2     1  UNL1        0.2401
      8 O         137.8531  143.9898  162.3593 O.2     1  UNL1       -0.2734
      9 N         139.1680  142.2109  163.7217 N.am    1  UNL1       -0.2770
     10 C         139.6140  140.7801  163.7864 C.3     1  UNL1        0.0949
     11 C         140.4344  140.1032  164.8442 C.3     1  UNL1        0.0388
     12 C         141.0112  140.6897  166.0984 C.3     1  UNL1        0.0739
     13 N         140.9103  142.0981  166.6047 N.3     1  UNL1       -0.2725
     14 C         140.2075  143.2677  165.9818 C.3     1  UNL1        0.0938
     15 C         139.4322  143.3179  164.6986 C.3     1  UNL1        0.1107
     16 C         141.6038  142.3732  167.9059 C.3     1  UNL1        0.0576
     17 C         140.9876  143.0104  169.1160 C.3     1  UNL1        0.0160
     18 C         142.0382  143.0904  170.1836 C.3     1  UNL1        0.0014
     19 C         143.3038  142.5025  169.6333 C.3     1  UNL1        0.0014
     20 C         143.0353  142.0593  168.2257 C.3     1  UNL1        0.0160
     21 O         138.1195  139.9735  157.9370 O.3     1  UNL1       -0.4777
     22 C         142.1534  138.5812  156.5090 C.ar    1  UNL1        0.0686
     23 C         141.7883  140.0337  156.4252 C.ar    1  UNL1        0.0134
     24 C         140.4437  140.4977  156.9012 C.ar    1  UNL1        0.0376
     25 C         139.4641  139.5093  157.4610 C.ar    1  UNL1        0.1385
     26 C         139.8291  138.0569  157.5448 C.ar    1  UNL1        0.0376
     27 C         141.1737  137.5928  157.0688 C.ar    1  UNL1        0.0134
     28 N         144.8426  137.6529  155.5571 N.1     1  UNL1       -0.1908
     29 C         143.4980  138.1171  156.0330 C.1     1  UNL1        0.1004
@<TRIPOS>BOND
     1    28    29    3
     2    29    22    1
     3    22    23   ar
     4    23    24   ar
     5    24    25   ar
     6    25    21    1
     7     1    21    1
     8     1     2    1
     9     2     3    1
    10     3     4    1
    11     4     7    1
    12     7     8    2
    13     7     9   am
    14     9    10    1
    15    10    11    1
    16    11    12    1
    17    12    13    1
    18    13    16    1
    19    16    17    1
    20    17    18    1
    21    18    19    1
    22    19    20    1
    23    13    14    1
    24    14    15    1
    25     4     5    1
    26    25    26   ar
    27    26    27   ar
    28    27    22   ar
    29     5     1    1
    30    15     9    1
    31    20    16    1
    32     3     6    1
@<TRIPOS>MOLECULE
*****
 29 32 0 0 0
SMALL
GASTEIGER

@<TRIPOS>ATOM
      1 C         140.1529  145.3681  156.8529 C.3     1  UNL1        0.1834
      2 C         141.2474  146.0737  157.5972 C.3     1  UNL1        0.1130
      3 N         141.8915  145.0842  158.5223 N.3     1  UNL1       -0.2882
      4 C         141.1951  143.7669  158.3499 C.3     1  UNL1        0.1355
      5 C         140.1205  143.9423  157.3181 C.3     1  UNL1        0.0700
      6 H         141.7985  145.4012  159.4873 H       1  UNL1        0.1237
      7 C         141.5167  142.4972  159.0808 C.2     1  UNL1        0.2401
      8 O         142.6643  141.6427  158.6305 O.2     1  UNL1       -0.2734
      9 N         140.6907  142.0819  160.2620 N.am    1  UNL1       -0.2770
     10 C         139.5680  143.0068  160.6284 C.3     1  UNL1        0.0949
     11 C         138.5738  142.8749  161.7440 C.3     1  UNL1        0.0388
     12 C         138.4569  141.7856  162.7684 C.3     1  UNL1        0.0739
     13 N         139.3051  140.5591  162.9305 N.3     1  UNL1       -0.2725
     14 C         140.4798  140.1190  162.1081 C.3     1  UNL1        0.0938
     15 C         141.0964  140.7968  160.9205 C.3     1  UNL1        0.1107
     16 C         138.9289  139.6529  164.0650 C.3     1  UNL1        0.0576
     17 C         138.2996  140.0752  165.3595 C.3     1  UNL1        0.0160
     18 C         138.0977  138.8485  166.1988 C.3     1  UNL1        0.0014
     19 C         138.6022  137.6680  165.4230 C.3     1  UNL1        0.0014
     20 C         139.1159  138.1651  164.1043 C.3     1  UNL1        0.0160
     21 O         139.2493  145.9805  155.8241 O.3     1  UNL1       -0.4777
     22 C         138.9770  150.4564  155.4473 C.ar    1  UNL1        0.0686
     23 C         138.4919  149.7778  156.6939 C.ar    1  UNL1        0.0134
     24 C         138.5827  148.2859  156.8195 C.ar    1  UNL1        0.0376
     25 C         139.1585  147.4725  155.6984 C.ar    1  UNL1        0.1385
     26 C         139.6436  148.1510  154.4518 C.ar    1  UNL1        0.0376
     27 C         139.5528  149.6430  154.3262 C.ar    1  UNL1        0.0134
     28 N         138.7955  153.4404  155.1960 N.1     1  UNL1       -0.1908
     29 C         138.8862  151.9484  155.3216 C.1     1  UNL1        0.1004
@<TRIPOS>BOND
     1    28    29    3
     2    29    22    1
     3    22    23   ar
     4    23    24   ar
     5    24    25   ar
     6    25    21    1
     7     1    21    1
     8     1     2    1
     9     2     3    1
    10     3     4    1
    11     4     7    1
    12     7     8    2
    13     7     9   am
    14     9    10    1
    15    10    11    1
    16    11    12    1
    17    12    13    1
    18    13    16    1
    19    16    17    1
    20    17    18    1
    21    18    19    1
    22    19    20    1
    23    13    14    1
    24    14    15    1
    25     4     5    1
    26    25    26   ar
    27    26    27   ar
    28    27    22   ar
    29     5     1    1
    30    15     9    1
    31    20    16    1
    32     3     6    1
@<TRIPOS>MOLECULE
*****
 29 32 0 0 0
SMALL
GASTEIGER

@<TRIPOS>ATOM
      1 C         141.3978  137.6573  157.0675 C.3     1  UNL1        0.1834
      2 C         139.9193  137.6740  157.3197 C.3     1  UNL1        0.1130
      3 N         139.6549  138.6057  158.4650 N.3     1  UNL1       -0.2882
      4 C         140.9699  139.1649  158.9208 C.3     1  UNL1        0.1355
      5 C         142.0472  138.5788  158.0571 C.3     1  UNL1        0.0700
      6 H         139.2114  138.0970  159.2298 H       1  UNL1        0.1237
      7 C         141.1723  140.1392  160.0432 C.2     1  UNL1        0.2401
      8 O         141.3150  141.6031  159.7490 O.2     1  UNL1       -0.2734
      9 N         141.2321  139.6496  161.4598 N.am    1  UNL1       -0.2770
     10 C         141.0784  138.1688  161.6435 C.3     1  UNL1        0.0949
     11 C         141.0923  137.3782  162.9182 C.3     1  UNL1        0.0388
     12 C         141.2632  137.8730  164.3238 C.3     1  UNL1        0.0739
     13 N         141.4625  139.2807  164.8020 N.3     1  UNL1       -0.2725
     14 C         141.5401  140.5413  163.9927 C.3     1  UNL1        0.0938
     15 C         141.4375  140.7053  162.5052 C.3     1  UNL1        0.1107
     16 C         141.6028  139.4503  166.2858 C.3     1  UNL1        0.0576
     17 C         140.5495  139.9733  167.2169 C.3     1  UNL1        0.0160
     18 C         141.1166  139.9730  168.6055 C.3     1  UNL1        0.0014
     19 C         142.5206  139.4497  168.5326 C.3     1  UNL1        0.0014
     20 C         142.8210  139.1267  167.0989 C.3     1  UNL1        0.0160
     21 O         142.1031  136.8593  156.0113 O.3     1  UNL1       -0.4777
     22 C         142.8001  132.4540  156.6096 C.ar    1  UNL1        0.0686
     23 C         143.5940  133.4529  157.3982 C.ar    1  UNL1        0.0134
     24 C         143.3617  134.9213  157.1987 C.ar    1  UNL1        0.0376
     25 C         142.3354  135.3908  156.2107 C.ar    1  UNL1        0.1385
     26 C         141.5415  134.3920  155.4221 C.ar    1  UNL1        0.0376
     27 C         141.7738  132.9236  155.6215 C.ar    1  UNL1        0.0134
     28 N         143.2646  129.5172  157.0085 N.1     1  UNL1       -0.1908
     29 C         143.0323  130.9856  156.8090 C.1     1  UNL1        0.1004
@<TRIPOS>BOND
     1    28    29    3
     2    29    22    1
     3    22    23   ar
     4    23    24   ar
     5    24    25   ar
     6    25    21    1
     7     1    21    1
     8     1     2    1
     9     2     3    1
    10     3     4    1
    11     4     7    1
    12     7     8    2
    13     7     9   am
    14     9    10    1
    15    10    11    1
    16    11    12    1
    17    12    13    1
    18    13    16    1
    19    16    17    1
    20    17    18    1
    21    18    19    1
    22    19    20    1
    23    13    14    1
    24    14    15    1
    25     4     5    1
    26    25    26   ar
    27    26    27   ar
    28    27    22   ar
    29     5     1    1
    30    15     9    1
    31    20    16    1
    32     3     6    1
