@<TRIPOS>MOLECULE
*****
 31 34 0 0 0
SMALL
GASTEIGER

@<TRIPOS>ATOM
      1 C         140.3568  141.1257  166.6494 C.3     1  UNL1        0.2959
      2 N         140.6418  140.0241  167.6266 N.2     1  UNL1       -0.0404
      3 C         141.0696  140.6513  168.9204 C.2     1  UNL1        0.3289
      4 N         141.4510  139.9180  170.1721 N.pl3   1  UNL1       -0.2454
      5 C         141.0490  142.1406  168.7426 C.2     1  UNL1        0.1391
      6 N         140.6085  142.4338  167.3390 N.2     1  UNL1       -0.2192
      7 H         141.4331  138.9338  170.1908 H       1  UNL1        0.2885
      8 H         141.7192  140.4208  170.9748 H       1  UNL1        0.2885
      9 C         139.2978  143.7238  163.1311 C.ar    1  UNL1        0.1387
     10 C         140.6979  143.7241  163.6691 C.ar    1  UNL1        0.0368
     11 C         141.0510  142.8581  164.8419 C.ar    1  UNL1        0.0052
     12 C         140.0038  141.9918  165.4766 C.ar    1  UNL1        0.0481
     13 C         138.6037  141.9915  164.9386 C.ar    1  UNL1        0.0052
     14 C         138.2506  142.8575  163.7658 C.ar    1  UNL1        0.0368
     15 C         139.7013  145.8611  161.7101 C.3     1  UNL1        0.2525
     16 O         138.9448  144.5899  161.9583 O.3     1  UNL1       -0.4714
     17 C         140.0314  139.9987  165.7145 C.ar    1  UNL1        0.0479
     18 C         138.8735  139.0914  166.0080 C.ar    1  UNL1        0.0021
     19 C         138.5480  137.9645  165.0732 C.ar    1  UNL1       -0.0001
     20 C         139.3805  137.7447  163.8449 C.ar    1  UNL1        0.0001
     21 C         140.5383  138.6519  163.5514 C.ar    1  UNL1        0.0029
     22 C         140.8638  139.7789  164.4862 C.ar    1  UNL1        0.0022
     23 C         141.3708  138.4322  162.3231 C.ar    1  UNL1        0.0384
     24 C         140.7519  138.5682  160.9634 C.ar    1  UNL1        0.1022
     25 N         141.5843  138.3484  159.7351 N.ar    1  UNL1       -0.2224
     26 C         143.0357  137.9926  159.8664 C.ar    1  UNL1        0.1989
     27 N         143.6545  137.8566  161.2260 N.ar    1  UNL1       -0.2224
     28 C         142.8220  138.0764  162.4544 C.ar    1  UNL1        0.1022
     29 C         141.4062  143.1580  169.7853 C.3     1  UNL1        0.0475
     30 C         142.7439  143.1009  170.4616 C.3     1  UNL1        0.0066
     31 C         140.4258  144.2325  170.1517 C.3     1  UNL1        0.0066
@<TRIPOS>BOND
     1    15    16    1
     2    16     9    1
     3     9    10   ar
     4    10    11   ar
     5    11    12   ar
     6    12     1    1
     7     1    17    1
     8    17    18   ar
     9    18    19   ar
    10    19    20   ar
    11    20    21   ar
    12    21    23    1
    13    23    24   ar
    14    24    25   ar
    15    25    26   ar
    16    26    27   ar
    17    27    28   ar
    18    21    22   ar
    19     1     2    1
    20     2     3    2
    21     3     4    1
    22     3     5    1
    23     5    29    1
    24    29    30    1
    25    29    31    1
    26     5     6    2
    27    12    13   ar
    28    13    14   ar
    29    14     9   ar
    30     6     1    1
    31    22    17   ar
    32    28    23   ar
    33     4     7    1
    34     4     8    1
@<TRIPOS>MOLECULE
*****
 31 34 0 0 0
SMALL
GASTEIGER

@<TRIPOS>ATOM
      1 C         141.9116  141.9090  166.1679 C.3     1  UNL1        0.2959
      2 N         142.8648  141.0753  166.9718 N.2     1  UNL1       -0.0404
      3 C         142.2760  140.8862  168.3385 C.2     1  UNL1        0.3289
      4 N         142.8956  140.1156  169.4665 N.pl3   1  UNL1       -0.2454
      5 C         140.9590  141.6030  168.3791 C.2     1  UNL1        0.1391
      6 N         140.7338  142.2351  167.0376 N.2     1  UNL1       -0.2192
      7 H         143.7684  139.6773  169.3423 H       1  UNL1        0.2885
      8 H         142.4294  140.0481  170.3310 H       1  UNL1        0.2885
      9 C         139.6938  144.3105  163.0753 C.ar    1  UNL1        0.1387
     10 C         141.0138  144.7957  163.5968 C.ar    1  UNL1        0.0368
     11 C         141.7531  143.9952  164.6276 C.ar    1  UNL1        0.0052
     12 C         141.1723  142.7095  165.1370 C.ar    1  UNL1        0.0481
     13 C         139.8523  142.2242  164.6155 C.ar    1  UNL1        0.0052
     14 C         139.1130  143.0247  163.5846 C.ar    1  UNL1        0.0368
     15 C         139.5885  146.3317  161.4464 C.3     1  UNL1        0.2525
     16 O         138.9545  145.1109  162.0444 O.3     1  UNL1       -0.4714
     17 C         142.9348  141.7502  165.0826 C.ar    1  UNL1        0.0479
     18 C         144.2283  142.5063  165.1549 C.ar    1  UNL1        0.0021
     19 C         145.2515  142.3475  164.0697 C.ar    1  UNL1       -0.0001
     20 C         144.9812  141.4326  162.9121 C.ar    1  UNL1        0.0001
     21 C         143.6879  140.6764  162.8398 C.ar    1  UNL1        0.0029
     22 C         142.6646  140.8353  163.9251 C.ar    1  UNL1        0.0022
     23 C         143.4176  139.7615  161.6823 C.ar    1  UNL1        0.0384
     24 C         142.6818  138.4728  161.9008 C.ar    1  UNL1        0.1022
     25 N         142.4116  137.5579  160.7433 N.ar    1  UNL1       -0.2224
     26 C         142.8772  137.9317  159.3672 C.ar    1  UNL1        0.1989
     27 N         143.6131  139.2204  159.1487 N.ar    1  UNL1       -0.2224
     28 C         143.8833  140.1353  160.3063 C.ar    1  UNL1        0.1022
     29 C         140.0304  141.6751  169.5549 C.3     1  UNL1        0.0475
     30 C         139.9495  142.9311  170.3709 C.3     1  UNL1        0.0066
     31 C         139.1826  140.4911  169.9146 C.3     1  UNL1        0.0066
@<TRIPOS>BOND
     1    15    16    1
     2    16     9    1
     3     9    10   ar
     4    10    11   ar
     5    11    12   ar
     6    12     1    1
     7     1    17    1
     8    17    18   ar
     9    18    19   ar
    10    19    20   ar
    11    20    21   ar
    12    21    23    1
    13    23    24   ar
    14    24    25   ar
    15    25    26   ar
    16    26    27   ar
    17    27    28   ar
    18    21    22   ar
    19     1     2    1
    20     2     3    2
    21     3     4    1
    22     3     5    1
    23     5    29    1
    24    29    30    1
    25    29    31    1
    26     5     6    2
    27    12    13   ar
    28    13    14   ar
    29    14     9   ar
    30     6     1    1
    31    22    17   ar
    32    28    23   ar
    33     4     7    1
    34     4     8    1
@<TRIPOS>MOLECULE
*****
 31 34 0 0 0
SMALL
GASTEIGER

@<TRIPOS>ATOM
      1 C         142.6094  141.0896  166.0975 C.3     1  UNL1        0.2959
      2 N         143.2902  142.1419  166.9215 N.2     1  UNL1       -0.0404
      3 C         143.0661  141.8147  168.3682 C.2     1  UNL1        0.3289
      4 N         143.5724  142.6036  169.5392 N.pl3   1  UNL1       -0.2454
      5 C         142.2466  140.5603  168.4382 C.2     1  UNL1        0.1391
      6 N         141.9644  140.1121  167.0348 N.2     1  UNL1       -0.2192
      7 H         144.1052  143.4180  169.3907 H       1  UNL1        0.2885
      8 H         143.3720  142.3069  170.4563 H       1  UNL1        0.2885
      9 C         140.8963  138.4295  162.8976 C.ar    1  UNL1        0.1387
     10 C         142.3545  138.3479  163.2395 C.ar    1  UNL1        0.0368
     11 C         142.9255  139.2346  164.3061 C.ar    1  UNL1        0.0052
     12 C         142.0383  140.2029  165.0308 C.ar    1  UNL1        0.0481
     13 C         140.5801  140.2844  164.6889 C.ar    1  UNL1        0.0052
     14 C         140.0091  139.3978  163.6223 C.ar    1  UNL1        0.0368
     15 C         139.2674  138.0677  160.9062 C.3     1  UNL1        0.2525
     16 O         140.3253  137.5428  161.8309 O.3     1  UNL1       -0.4714
     17 C         143.1350  141.8817  164.9371 C.ar    1  UNL1        0.0479
     18 C         144.5917  141.8194  164.5849 C.ar    1  UNL1        0.0021
     19 C         145.1172  142.6114  163.4246 C.ar    1  UNL1       -0.0001
     20 C         144.1861  143.4658  162.6165 C.ar    1  UNL1        0.0001
     21 C         142.7295  143.5282  162.9687 C.ar    1  UNL1        0.0029
     22 C         142.2039  142.7361  164.1291 C.ar    1  UNL1        0.0022
     23 C         141.7984  144.3826  162.1606 C.ar    1  UNL1        0.0384
     24 C         140.8797  145.3485  162.8483 C.ar    1  UNL1        0.1022
     25 N         139.9486  146.2029  162.0403 N.ar    1  UNL1       -0.2224
     26 C         139.9361  146.0914  160.5444 C.ar    1  UNL1        0.1989
     27 N         140.8548  145.1254  159.8567 N.ar    1  UNL1       -0.2224
     28 C         141.7859  144.2710  160.6649 C.ar    1  UNL1        0.1022
     29 C         141.7897  139.8745  169.6915 C.3     1  UNL1        0.0475
     30 C         142.5819  138.7307  170.2520 C.3     1  UNL1        0.0066
     31 C         140.5406  140.3324  170.3843 C.3     1  UNL1        0.0066
@<TRIPOS>BOND
     1    15    16    1
     2    16     9    1
     3     9    10   ar
     4    10    11   ar
     5    11    12   ar
     6    12     1    1
     7     1    17    1
     8    17    18   ar
     9    18    19   ar
    10    19    20   ar
    11    20    21   ar
    12    21    23    1
    13    23    24   ar
    14    24    25   ar
    15    25    26   ar
    16    26    27   ar
    17    27    28   ar
    18    21    22   ar
    19     1     2    1
    20     2     3    2
    21     3     4    1
    22     3     5    1
    23     5    29    1
    24    29    30    1
    25    29    31    1
    26     5     6    2
    27    12    13   ar
    28    13    14   ar
    29    14     9   ar
    30     6     1    1
    31    22    17   ar
    32    28    23   ar
    33     4     7    1
    34     4     8    1
@<TRIPOS>MOLECULE
*****
 31 34 0 0 0
SMALL
GASTEIGER

@<TRIPOS>ATOM
      1 C         141.9760  142.1574  166.7088 C.3     1  UNL1        0.2959
      2 N         143.2936  142.3044  167.4104 N.2     1  UNL1       -0.0404
      3 C         143.0290  142.3629  168.8858 C.2     1  UNL1        0.3289
      4 N         144.0639  142.5069  169.9621 N.pl3   1  UNL1       -0.2454
      5 C         141.5480  142.2520  169.0960 C.2     1  UNL1        0.1391
      6 N         140.8971  142.1250  167.7505 N.2     1  UNL1       -0.2192
      7 H         145.0167  142.5726  169.7231 H       1  UNL1        0.2885
      8 H         143.7904  142.5358  170.9073 H       1  UNL1        0.2885
      9 C         138.5500  141.7174  163.8245 C.ar    1  UNL1        0.1387
     10 C         138.9454  140.5659  164.7006 C.ar    1  UNL1        0.0368
     11 C         140.0874  140.7125  165.6621 C.ar    1  UNL1        0.0052
     12 C         140.8340  142.0107  165.7474 C.ar    1  UNL1        0.0481
     13 C         140.4386  143.1622  164.8713 C.ar    1  UNL1        0.0052
     14 C         139.2966  143.0156  163.9098 C.ar    1  UNL1        0.0368
     15 C         137.5198  140.6248  161.7044 C.3     1  UNL1        0.2525
     16 O         137.4080  141.5708  162.8631 O.3     1  UNL1       -0.4714
     17 C         142.8160  142.1591  165.4661 C.ar    1  UNL1        0.0479
     18 C         143.8069  143.2606  165.2321 C.ar    1  UNL1        0.0021
     19 C         144.6469  143.2623  163.9895 C.ar    1  UNL1       -0.0001
     20 C         144.4961  142.1625  162.9808 C.ar    1  UNL1        0.0001
     21 C         143.5053  141.0609  163.2147 C.ar    1  UNL1        0.0029
     22 C         142.6652  141.0592  164.4574 C.ar    1  UNL1        0.0022
     23 C         143.3545  139.9611  162.2059 C.ar    1  UNL1        0.0384
     24 C         142.4825  138.7790  162.5099 C.ar    1  UNL1        0.1022
     25 N         142.3317  137.6791  161.5012 N.ar    1  UNL1       -0.2224
     26 C         143.0529  137.7613  160.1884 C.ar    1  UNL1        0.1989
     27 N         143.9249  138.9434  159.8844 N.ar    1  UNL1       -0.2224
     28 C         144.0757  140.0433  160.8933 C.ar    1  UNL1        0.1022
     29 C         140.8418  142.2657  170.4193 C.3     1  UNL1        0.0475
     30 C         141.1520  141.2169  171.4458 C.3     1  UNL1        0.0066
     31 C         139.8255  143.3283  170.7160 C.3     1  UNL1        0.0066
@<TRIPOS>BOND
     1    15    16    1
     2    16     9    1
     3     9    10   ar
     4    10    11   ar
     5    11    12   ar
     6    12     1    1
     7     1    17    1
     8    17    18   ar
     9    18    19   ar
    10    19    20   ar
    11    20    21   ar
    12    21    23    1
    13    23    24   ar
    14    24    25   ar
    15    25    26   ar
    16    26    27   ar
    17    27    28   ar
    18    21    22   ar
    19     1     2    1
    20     2     3    2
    21     3     4    1
    22     3     5    1
    23     5    29    1
    24    29    30    1
    25    29    31    1
    26     5     6    2
    27    12    13   ar
    28    13    14   ar
    29    14     9   ar
    30     6     1    1
    31    22    17   ar
    32    28    23   ar
    33     4     7    1
    34     4     8    1
@<TRIPOS>MOLECULE
*****
 31 34 0 0 0
SMALL
GASTEIGER

@<TRIPOS>ATOM
      1 C         141.9763  140.7833  166.3601 C.3     1  UNL1        0.2959
      2 N         143.0833  141.5798  166.9846 N.2     1  UNL1       -0.0404
      3 C         142.6681  141.9343  168.3818 C.2     1  UNL1        0.3289
      4 N         143.4749  142.7270  169.3670 N.pl3   1  UNL1       -0.2454
      5 C         141.3045  141.3568  168.6207 C.2     1  UNL1        0.1391
      6 N         140.8769  140.6455  167.3712 N.2     1  UNL1       -0.2192
      7 H         144.3645  143.0655  169.1156 H       1  UNL1        0.2885
      8 H         143.1147  142.9088  170.2651 H       1  UNL1        0.2885
      9 C         139.2245  138.3749  163.7377 C.ar    1  UNL1        0.1387
     10 C         138.8873  139.7977  164.0717 C.ar    1  UNL1        0.0368
     11 C         139.8046  140.6005  164.9459 C.ar    1  UNL1        0.0052
     12 C         141.0590  139.9805  165.4860 C.ar    1  UNL1        0.0481
     13 C         141.3962  138.5576  165.1519 C.ar    1  UNL1        0.0052
     14 C         140.4790  137.7548  164.2778 C.ar    1  UNL1        0.0368
     15 C         137.7264  138.1845  161.6236 C.3     1  UNL1        0.2525
     16 O         138.3072  137.5721  162.8636 O.3     1  UNL1       -0.4714
     17 C         142.8839  140.7532  165.1662 C.ar    1  UNL1        0.0479
     18 C         144.1361  139.9278  165.1966 C.ar    1  UNL1        0.0021
     19 C         145.0436  139.8978  164.0028 C.ar    1  UNL1       -0.0001
     20 C         144.6991  140.6931  162.7785 C.ar    1  UNL1        0.0001
     21 C         143.4471  141.5185  162.7481 C.ar    1  UNL1        0.0029
     22 C         142.5395  141.5485  163.9420 C.ar    1  UNL1        0.0022
     23 C         143.1026  142.3138  161.5239 C.ar    1  UNL1        0.0384
     24 C         143.3557  141.7403  160.1612 C.ar    1  UNL1        0.1022
     25 N         143.0112  142.5357  158.9369 N.ar    1  UNL1       -0.2224
     26 C         142.4136  143.9046  159.0754 C.ar    1  UNL1        0.1989
     27 N         142.1605  144.4781  160.4382 N.ar    1  UNL1       -0.2224
     28 C         142.5050  143.6827  161.6624 C.ar    1  UNL1        0.1022
     29 C         140.5082  141.4708  169.8868 C.3     1  UNL1        0.0475
     30 C         139.9574  142.8005  170.3093 C.3     1  UNL1        0.0066
     31 C         140.2628  140.2550  170.7304 C.3     1  UNL1        0.0066
@<TRIPOS>BOND
     1    15    16    1
     2    16     9    1
     3     9    10   ar
     4    10    11   ar
     5    11    12   ar
     6    12     1    1
     7     1    17    1
     8    17    18   ar
     9    18    19   ar
    10    19    20   ar
    11    20    21   ar
    12    21    23    1
    13    23    24   ar
    14    24    25   ar
    15    25    26   ar
    16    26    27   ar
    17    27    28   ar
    18    21    22   ar
    19     1     2    1
    20     2     3    2
    21     3     4    1
    22     3     5    1
    23     5    29    1
    24    29    30    1
    25    29    31    1
    26     5     6    2
    27    12    13   ar
    28    13    14   ar
    29    14     9   ar
    30     6     1    1
    31    22    17   ar
    32    28    23   ar
    33     4     7    1
    34     4     8    1
@<TRIPOS>MOLECULE
*****
 31 34 0 0 0
SMALL
GASTEIGER

@<TRIPOS>ATOM
      1 C         141.4887  141.6791  166.8390 C.3     1  UNL1        0.2959
      2 N         141.8133  142.7614  167.8256 N.2     1  UNL1       -0.0404
      3 C         141.2089  142.3822  169.1451 C.2     1  UNL1        0.3289
      4 N         141.2886  143.1796  170.4131 N.pl3   1  UNL1       -0.2454
      5 C         140.5110  141.0655  168.9740 C.2     1  UNL1        0.1391
      6 N         140.6839  140.6310  167.5488 N.2     1  UNL1       -0.2192
      7 H         141.7723  144.0370  170.4258 H       1  UNL1        0.2885
      8 H         140.8573  142.8456  171.2326 H       1  UNL1        0.2885
      9 C         140.9986  138.9712  163.2786 C.ar    1  UNL1        0.1387
     10 C         139.7906  139.5590  163.9457 C.ar    1  UNL1        0.0368
     11 C         139.9540  140.4616  165.1325 C.ar    1  UNL1        0.0052
     12 C         141.3254  140.7764  165.6522 C.ar    1  UNL1        0.0481
     13 C         142.5334  140.1886  164.9851 C.ar    1  UNL1        0.0052
     14 C         142.3700  139.2860  163.7982 C.ar    1  UNL1        0.0368
     15 C         142.0209  137.7311  161.2372 C.3     1  UNL1        0.2525
     16 O         140.8352  138.0685  162.0917 O.3     1  UNL1       -0.4714
     17 C         142.2595  142.5385  165.8812 C.ar    1  UNL1        0.0479
     18 C         143.7115  142.8216  166.1290 C.ar    1  UNL1        0.0021
     19 C         144.4821  143.6809  165.1712 C.ar    1  UNL1       -0.0001
     20 C         143.8008  144.2572  163.9655 C.ar    1  UNL1        0.0001
     21 C         142.3489  143.9740  163.7176 C.ar    1  UNL1        0.0029
     22 C         141.5781  143.1147  164.6754 C.ar    1  UNL1        0.0022
     23 C         141.6675  144.5503  162.5119 C.ar    1  UNL1        0.0384
     24 C         142.2509  144.3358  161.1467 C.ar    1  UNL1        0.1022
     25 N         141.5696  144.9120  159.9409 N.ar    1  UNL1       -0.2224
     26 C         140.3048  145.7027  160.1004 C.ar    1  UNL1        0.1989
     27 N         139.7215  145.9172  161.4656 N.ar    1  UNL1       -0.2224
     28 C         140.4029  145.3410  162.6713 C.ar    1  UNL1        0.1022
     29 C         139.7701  140.3152  170.0408 C.3     1  UNL1        0.0475
     30 C         140.5088  139.7788  171.2310 C.3     1  UNL1        0.0066
     31 C         138.2906  140.1013  169.9175 C.3     1  UNL1        0.0066
@<TRIPOS>BOND
     1    15    16    1
     2    16     9    1
     3     9    10   ar
     4    10    11   ar
     5    11    12   ar
     6    12     1    1
     7     1    17    1
     8    17    18   ar
     9    18    19   ar
    10    19    20   ar
    11    20    21   ar
    12    21    23    1
    13    23    24   ar
    14    24    25   ar
    15    25    26   ar
    16    26    27   ar
    17    27    28   ar
    18    21    22   ar
    19     1     2    1
    20     2     3    2
    21     3     4    1
    22     3     5    1
    23     5    29    1
    24    29    30    1
    25    29    31    1
    26     5     6    2
    27    12    13   ar
    28    13    14   ar
    29    14     9   ar
    30     6     1    1
    31    22    17   ar
    32    28    23   ar
    33     4     7    1
    34     4     8    1
@<TRIPOS>MOLECULE
*****
 31 34 0 0 0
SMALL
GASTEIGER

@<TRIPOS>ATOM
      1 C         140.1794  140.3435  166.9137 C.3     1  UNL1        0.2959
      2 N         139.0418  139.6905  167.6414 N.2     1  UNL1       -0.0404
      3 C         139.0413  140.1992  169.0526 C.2     1  UNL1        0.3289
      4 N         138.0734  139.8090  170.1301 N.pl3   1  UNL1       -0.2454
      5 C         140.1786  141.1665  169.1970 C.2     1  UNL1        0.1391
      6 N         140.8819  141.2557  167.8752 N.2     1  UNL1       -0.2192
      7 H         137.3565  139.1624  169.9372 H       1  UNL1        0.2885
      8 H         138.1551  140.1994  171.0301 H       1  UNL1        0.2885
      9 C         143.2873  141.7938  164.0005 C.ar    1  UNL1        0.1387
     10 C         143.3014  140.3672  164.4638 C.ar    1  UNL1        0.0368
     11 C         142.2654  139.8838  165.4349 C.ar    1  UNL1        0.0052
     12 C         141.2154  140.8269  165.9426 C.ar    1  UNL1        0.0481
     13 C         141.2013  142.2535  165.4793 C.ar    1  UNL1        0.0052
     14 C         142.2373  142.7369  164.5082 C.ar    1  UNL1        0.0368
     15 C         145.7509  141.8411  163.1768 C.3     1  UNL1        0.2525
     16 O         144.3233  142.2772  163.0294 O.3     1  UNL1       -0.4714
     17 C         139.6934  139.5324  165.7493 C.ar    1  UNL1        0.0479
     18 C         139.4417  138.0626  165.9120 C.ar    1  UNL1        0.0021
     19 C         138.9557  137.2516  164.7476 C.ar    1  UNL1       -0.0001
     20 C         138.7215  137.9102  163.4205 C.ar    1  UNL1        0.0001
     21 C         138.9732  139.3798  163.2577 C.ar    1  UNL1        0.0029
     22 C         139.4591  140.1910  164.4222 C.ar    1  UNL1        0.0022
     23 C         138.7389  140.0384  161.9306 C.ar    1  UNL1        0.0384
     24 C         139.3218  141.3922  161.6518 C.ar    1  UNL1        0.1022
     25 N         139.0875  142.0508  160.3246 N.ar    1  UNL1       -0.2224
     26 C         138.2704  141.3556  159.2762 C.ar    1  UNL1        0.1989
     27 N         137.6875  140.0019  159.5549 N.ar    1  UNL1       -0.2224
     28 C         137.9218  139.3433  160.8822 C.ar    1  UNL1        0.1022
     29 C         140.5476  141.9135  170.4443 C.3     1  UNL1        0.0475
     30 C         141.7227  141.4698  171.2642 C.3     1  UNL1        0.0066
     31 C         139.7415  143.1041  170.8718 C.3     1  UNL1        0.0066
@<TRIPOS>BOND
     1    15    16    1
     2    16     9    1
     3     9    10   ar
     4    10    11   ar
     5    11    12   ar
     6    12     1    1
     7     1    17    1
     8    17    18   ar
     9    18    19   ar
    10    19    20   ar
    11    20    21   ar
    12    21    23    1
    13    23    24   ar
    14    24    25   ar
    15    25    26   ar
    16    26    27   ar
    17    27    28   ar
    18    21    22   ar
    19     1     2    1
    20     2     3    2
    21     3     4    1
    22     3     5    1
    23     5    29    1
    24    29    30    1
    25    29    31    1
    26     5     6    2
    27    12    13   ar
    28    13    14   ar
    29    14     9   ar
    30     6     1    1
    31    22    17   ar
    32    28    23   ar
    33     4     7    1
    34     4     8    1
@<TRIPOS>MOLECULE
*****
 31 34 0 0 0
SMALL
GASTEIGER

@<TRIPOS>ATOM
      1 C         141.9144  140.5368  165.9901 C.3     1  UNL1        0.2959
      2 N         141.0002  139.7647  166.8945 N.2     1  UNL1       -0.0404
      3 C         141.1217  140.3381  168.2754 C.2     1  UNL1        0.3289
      4 N         140.3836  139.8675  169.4935 N.pl3   1  UNL1       -0.2454
      5 C         142.1110  141.4644  168.2242 C.2     1  UNL1        0.1391
      6 N         142.6009  141.5873  166.8118 N.2     1  UNL1       -0.2192
      7 H         139.7511  139.1160  169.4261 H       1  UNL1        0.2885
      8 H         140.5315  140.3102  170.3603 H       1  UNL1        0.2885
      9 C         144.3321  142.2701  162.6135 C.ar    1  UNL1        0.1387
     10 C         143.1625  143.0298  163.1656 C.ar    1  UNL1        0.0368
     11 C         142.3566  142.4520  164.2911 C.ar    1  UNL1        0.0052
     12 C         142.7203  141.1146  164.8646 C.ar    1  UNL1        0.0481
     13 C         143.8899  140.3549  164.3125 C.ar    1  UNL1        0.0052
     14 C         144.6958  140.9326  163.1870 C.ar    1  UNL1        0.0368
     15 C         144.7240  142.6042  160.0670 C.3     1  UNL1        0.2525
     16 O         145.1380  142.8478  161.4880 O.3     1  UNL1       -0.4714
     17 C         141.3964  139.6072  164.9330 C.ar    1  UNL1        0.0479
     18 C         141.5362  138.1236  165.1049 C.ar    1  UNL1        0.0021
     19 C         141.0183  137.1940  164.0479 C.ar    1  UNL1       -0.0001
     20 C         140.3605  137.7479  162.8189 C.ar    1  UNL1        0.0001
     21 C         140.2206  139.2313  162.6469 C.ar    1  UNL1        0.0029
     22 C         140.7386  140.1610  163.7039 C.ar    1  UNL1        0.0022
     23 C         139.5629  139.7852  161.4178 C.ar    1  UNL1        0.0384
     24 C         139.9331  141.1508  160.9197 C.ar    1  UNL1        0.1022
     25 N         139.2753  141.7046  159.6907 N.ar    1  UNL1       -0.2224
     26 C         138.2472  140.8929  158.9597 C.ar    1  UNL1        0.1989
     27 N         137.8770  139.5273  159.4578 N.ar    1  UNL1       -0.2224
     28 C         138.5348  138.9734  160.6869 C.ar    1  UNL1        0.1022
     29 C         142.5357  142.3181  169.3822 C.3     1  UNL1        0.0475
     30 C         141.5528  143.2493  170.0277 C.3     1  UNL1        0.0066
     31 C         143.9433  142.2405  169.8946 C.3     1  UNL1        0.0066
@<TRIPOS>BOND
     1    15    16    1
     2    16     9    1
     3     9    10   ar
     4    10    11   ar
     5    11    12   ar
     6    12     1    1
     7     1    17    1
     8    17    18   ar
     9    18    19   ar
    10    19    20   ar
    11    20    21   ar
    12    21    23    1
    13    23    24   ar
    14    24    25   ar
    15    25    26   ar
    16    26    27   ar
    17    27    28   ar
    18    21    22   ar
    19     1     2    1
    20     2     3    2
    21     3     4    1
    22     3     5    1
    23     5    29    1
    24    29    30    1
    25    29    31    1
    26     5     6    2
    27    12    13   ar
    28    13    14   ar
    29    14     9   ar
    30     6     1    1
    31    22    17   ar
    32    28    23   ar
    33     4     7    1
    34     4     8    1
@<TRIPOS>MOLECULE
*****
 31 34 0 0 0
SMALL
GASTEIGER

@<TRIPOS>ATOM
      1 C         141.4975  138.2466  158.7711 C.3     1  UNL1        0.2959
      2 N         140.4204  137.8263  157.8156 N.2     1  UNL1       -0.0404
      3 C         141.0551  137.0008  156.7357 C.2     1  UNL1        0.3289
      4 N         140.3450  136.3751  155.5720 N.pl3   1  UNL1       -0.2454
      5 C         142.5244  136.9111  157.0240 C.2     1  UNL1        0.1391
      6 N         142.7978  137.6810  158.2819 N.2     1  UNL1       -0.2192
      7 H         139.3729  136.4912  155.4682 H       1  UNL1        0.2885
      8 H         140.8511  135.8482  154.9120 H       1  UNL1        0.2885
      9 C         144.0237  139.9363  162.0898 C.ar    1  UNL1        0.1387
     10 C         143.3715  140.8563  161.1009 C.ar    1  UNL1        0.0368
     11 C         142.5294  140.2931  159.9947 C.ar    1  UNL1        0.0052
     12 C         142.3396  138.8098  159.8774 C.ar    1  UNL1        0.0481
     13 C         142.9918  137.8898  160.8663 C.ar    1  UNL1        0.0052
     14 C         143.8339  138.4530  161.9725 C.ar    1  UNL1        0.0368
     15 C         145.5699  141.8107  163.0094 C.3     1  UNL1        0.2525
     16 O         144.8658  140.4995  163.1960 O.3     1  UNL1       -0.4714
     17 C         140.3733  138.9300  159.4916 C.ar    1  UNL1        0.0479
     18 C         139.4802  139.8838  158.7549 C.ar    1  UNL1        0.0021
     19 C         138.3560  140.5671  159.4754 C.ar    1  UNL1       -0.0001
     20 C         138.1248  140.2967  160.9325 C.ar    1  UNL1        0.0001
     21 C         139.0178  139.3430  161.6693 C.ar    1  UNL1        0.0029
     22 C         140.1421  138.6596  160.9488 C.ar    1  UNL1        0.0022
     23 C         138.7866  139.0726  163.1265 C.ar    1  UNL1        0.0384
     24 C         138.2974  140.1700  164.0245 C.ar    1  UNL1        0.1022
     25 N         138.0662  139.8996  165.4817 N.ar    1  UNL1       -0.2224
     26 C         138.3243  138.5318  166.0409 C.ar    1  UNL1        0.1989
     27 N         138.8135  137.4344  165.1429 N.ar    1  UNL1       -0.2224
     28 C         139.0447  137.7048  163.6856 C.ar    1  UNL1        0.1022
     29 C         143.5416  136.1798  156.1991 C.3     1  UNL1        0.0475
     30 C         143.6701  134.6898  156.3148 C.3     1  UNL1        0.0066
     31 C         144.4303  136.9384  155.2586 C.3     1  UNL1        0.0066
@<TRIPOS>BOND
     1    15    16    1
     2    16     9    1
     3     9    10   ar
     4    10    11   ar
     5    11    12   ar
     6    12     1    1
     7     1    17    1
     8    17    18   ar
     9    18    19   ar
    10    19    20   ar
    11    20    21   ar
    12    21    23    1
    13    23    24   ar
    14    24    25   ar
    15    25    26   ar
    16    26    27   ar
    17    27    28   ar
    18    21    22   ar
    19     1     2    1
    20     2     3    2
    21     3     4    1
    22     3     5    1
    23     5    29    1
    24    29    30    1
    25    29    31    1
    26     5     6    2
    27    12    13   ar
    28    13    14   ar
    29    14     9   ar
    30     6     1    1
    31    22    17   ar
    32    28    23   ar
    33     4     7    1
    34     4     8    1
