@<TRIPOS>MOLECULE
*****
 29 31 0 0 0
SMALL
GASTEIGER

@<TRIPOS>ATOM
      1 C         140.6276  139.3643  163.8789 C.ar    1  UNL1        0.0184
      2 C         141.3411  139.3853  162.5597 C.ar    1  UNL1        0.0200
      3 C         140.7265  138.7202  161.3639 C.ar    1  UNL1        0.1109
      4 C         139.3984  138.0341  161.4873 C.ar    1  UNL1        0.0201
      5 C         138.6848  138.0132  162.8065 C.ar    1  UNL1        0.0197
      6 C         139.2994  138.6783  164.0023 C.ar    1  UNL1        0.1058
      7 C         143.0861  142.0247  168.6620 C.3     1  UNL1        0.0310
      8 C         142.4714  141.3596  167.4662 C.ar    1  UNL1       -0.0218
      9 C         142.6157  139.8789  167.2749 C.ar    1  UNL1       -0.0043
     10 C         142.0011  139.2138  166.0791 C.ar    1  UNL1       -0.0003
     11 C         141.2422  140.0294  165.0747 C.ar    1  UNL1        0.0013
     12 C         141.0980  141.5101  165.2660 C.ar    1  UNL1       -0.0003
     13 C         141.7126  142.1752  166.4618 C.ar    1  UNL1       -0.0043
     14 S         138.5858  138.6573  165.3216 S.O2    1  UNL1        0.0104
     15 C         137.8722  138.6363  166.6408 C.3     1  UNL1        0.1816
     16 O         138.0522  140.0334  165.0548 O.2     1  UNL1       -0.1686
     17 O         139.1195  137.2811  165.5884 O.2     1  UNL1       -0.1686
     18 S         141.4401  138.7412  160.0446 S.O2    1  UNL1        0.0330
     19 O         140.1436  138.4745  159.3390 O.2     1  UNL1       -0.1638
     20 O         142.7366  139.0078  160.7502 O.2     1  UNL1       -0.1638
     21 C         142.1537  138.7622  158.7254 C.ar    1  UNL1        0.1394
     22 C         142.8418  139.9465  158.1140 C.ar    1  UNL1        0.0256
     23 C         143.4179  139.5189  156.7967 C.ar    1  UNL1        0.0054
     24 C         143.0859  138.0701  156.5941 C.ar    1  UNL1        0.0242
     25 S         142.3046  137.6025  157.7861 S.2     1  UNL1       -0.0714
     26 C         143.4681  137.2356  155.4077 C.3     1  UNL1        0.0988
     27 N         144.8228  136.5944  155.3469 N.3     1  UNL1       -0.3170
     28 H         145.5389  137.3180  155.2844 H       1  UNL1        0.1192
     29 H         144.8767  135.9908  154.5264 H       1  UNL1        0.1192
@<TRIPOS>BOND
     1     7     8    1
     2     8     9   ar
     3     9    10   ar
     4    10    11   ar
     5    11     1    1
     6     1     2   ar
     7     2     3   ar
     8     3    18    1
     9    18    19    2
    10    18    20    2
    11    18    21    1
    12    21    22   ar
    13    22    23   ar
    14    23    24   ar
    15    24    26    1
    16    26    27    1
    17    24    25   ar
    18     3     4   ar
    19     4     5   ar
    20     5     6   ar
    21     6    14    1
    22    14    15    1
    23    14    16    2
    24    14    17    2
    25    11    12   ar
    26    12    13   ar
    27    13     8   ar
    28     6     1   ar
    29    25    21   ar
    30    27    28    1
    31    27    29    1
@<TRIPOS>MOLECULE
*****
 29 31 0 0 0
SMALL
GASTEIGER

@<TRIPOS>ATOM
      1 C         140.4491  142.8932  161.7470 C.ar    1  UNL1        0.0184
      2 C         140.2988  142.2843  163.1095 C.ar    1  UNL1        0.0200
      3 C         140.6391  143.0858  164.3309 C.ar    1  UNL1        0.1109
      4 C         141.1298  144.4961  164.1898 C.ar    1  UNL1        0.0201
      5 C         141.2802  145.1051  162.8272 C.ar    1  UNL1        0.0197
      6 C         140.9398  144.3036  161.6058 C.ar    1  UNL1        0.1058
      7 C         139.0877  139.6873  156.8614 C.3     1  UNL1        0.0310
      8 C         139.4280  140.4888  158.0828 C.ar    1  UNL1       -0.0218
      9 C         138.3879  141.3605  158.7217 C.ar    1  UNL1       -0.0043
     10 C         138.7283  142.1620  159.9431 C.ar    1  UNL1       -0.0003
     11 C         140.1088  142.0917  160.5256 C.ar    1  UNL1        0.0013
     12 C         141.1489  141.2200  159.8867 C.ar    1  UNL1       -0.0003
     13 C         140.8085  140.4185  158.6653 C.ar    1  UNL1       -0.0043
     14 S         141.0902  144.9126  160.2432 S.O2    1  UNL1        0.0104
     15 C         141.2405  145.5215  158.8807 C.3     1  UNL1        0.1816
     16 O         139.6849  145.4315  160.3201 O.2     1  UNL1       -0.1686
     17 O         142.4955  144.3937  160.1664 O.2     1  UNL1       -0.1686
     18 S         140.4887  142.4768  165.6935 S.O2    1  UNL1        0.0330
     19 O         141.1938  141.2408  165.2190 O.2     1  UNL1       -0.1638
     20 O         139.7837  143.7127  166.1680 O.2     1  UNL1       -0.1638
     21 C         140.3383  141.8679  167.0561 C.ar    1  UNL1        0.1394
     22 C         139.7531  140.5206  167.3600 C.ar    1  UNL1        0.0256
     23 C         139.7998  140.3193  168.8457 C.ar    1  UNL1        0.0054
     24 C         140.4140  141.5423  169.4600 C.ar    1  UNL1        0.0242
     25 S         140.7467  142.4993  168.3539 S.2     1  UNL1       -0.0714
     26 C         140.6532  141.7685  170.9234 C.3     1  UNL1        0.0988
     27 N         140.6840  140.6031  171.8673 N.3     1  UNL1       -0.3170
     28 H         139.7589  140.1755  171.9097 H       1  UNL1        0.1192
     29 H         140.9524  140.9256  172.7970 H       1  UNL1        0.1192
@<TRIPOS>BOND
     1     7     8    1
     2     8     9   ar
     3     9    10   ar
     4    10    11   ar
     5    11     1    1
     6     1     2   ar
     7     2     3   ar
     8     3    18    1
     9    18    19    2
    10    18    20    2
    11    18    21    1
    12    21    22   ar
    13    22    23   ar
    14    23    24   ar
    15    24    26    1
    16    26    27    1
    17    24    25   ar
    18     3     4   ar
    19     4     5   ar
    20     5     6   ar
    21     6    14    1
    22    14    15    1
    23    14    16    2
    24    14    17    2
    25    11    12   ar
    26    12    13   ar
    27    13     8   ar
    28     6     1   ar
    29    25    21   ar
    30    27    28    1
    31    27    29    1
@<TRIPOS>MOLECULE
*****
 29 31 0 0 0
SMALL
GASTEIGER

@<TRIPOS>ATOM
      1 C         139.3801  140.8991  162.1495 C.ar    1  UNL1        0.0184
      2 C         139.9250  139.8717  161.2023 C.ar    1  UNL1        0.0200
      3 C         139.9010  140.1266  159.7243 C.ar    1  UNL1        0.1109
      4 C         139.3320  141.4089  159.1935 C.ar    1  UNL1        0.0201
      5 C         138.7871  142.4364  160.1408 C.ar    1  UNL1        0.0197
      6 C         138.8111  142.1815  161.6187 C.ar    1  UNL1        0.1058
      7 C         139.4763  139.8796  168.0614 C.3     1  UNL1        0.0310
      8 C         139.4523  140.1345  166.5835 C.ar    1  UNL1       -0.0218
      9 C         138.3706  139.5328  165.7361 C.ar    1  UNL1       -0.0043
     10 C         138.3466  139.7877  164.2582 C.ar    1  UNL1       -0.0003
     11 C         139.4042  140.6442  163.6275 C.ar    1  UNL1        0.0013
     12 C         140.4858  141.2459  164.4748 C.ar    1  UNL1       -0.0003
     13 C         140.5099  140.9910  165.9528 C.ar    1  UNL1       -0.0043
     14 S         138.2661  143.2091  162.5660 S.O2    1  UNL1        0.0104
     15 C         137.7213  144.2366  163.5132 C.3     1  UNL1        0.1816
     16 O         139.5368  143.9965  162.4428 O.2     1  UNL1       -0.1686
     17 O         136.9955  142.4216  162.6892 O.2     1  UNL1       -0.1686
     18 S         140.4459  139.0990  158.7770 S.O2    1  UNL1        0.0330
     19 O         139.1199  139.0396  158.0785 O.2     1  UNL1       -0.1638
     20 O         141.7720  139.1584  159.4755 O.2     1  UNL1       -0.1638
     21 C         140.9909  138.0715  157.8298 C.ar    1  UNL1        0.1394
     22 C         140.2155  137.3560  156.7635 C.ar    1  UNL1        0.0256
     23 C         141.1524  136.4214  156.0573 C.ar    1  UNL1        0.0054
     24 C         142.5068  136.5592  156.6872 C.ar    1  UNL1        0.0242
     25 S         142.4070  137.5790  157.7826 S.2     1  UNL1       -0.0714
     26 C         143.7438  135.8090  156.2911 C.3     1  UNL1        0.0988
     27 N         144.7389  136.4401  155.3630 N.3     1  UNL1       -0.3170
     28 H         144.3143  136.5664  154.4442 H       1  UNL1        0.1192
     29 H         145.5566  135.8362  155.2795 H       1  UNL1        0.1192
@<TRIPOS>BOND
     1     7     8    1
     2     8     9   ar
     3     9    10   ar
     4    10    11   ar
     5    11     1    1
     6     1     2   ar
     7     2     3   ar
     8     3    18    1
     9    18    19    2
    10    18    20    2
    11    18    21    1
    12    21    22   ar
    13    22    23   ar
    14    23    24   ar
    15    24    26    1
    16    26    27    1
    17    24    25   ar
    18     3     4   ar
    19     4     5   ar
    20     5     6   ar
    21     6    14    1
    22    14    15    1
    23    14    16    2
    24    14    17    2
    25    11    12   ar
    26    12    13   ar
    27    13     8   ar
    28     6     1   ar
    29    25    21   ar
    30    27    28    1
    31    27    29    1
@<TRIPOS>MOLECULE
*****
 29 31 0 0 0
SMALL
GASTEIGER

@<TRIPOS>ATOM
      1 C         140.7212  141.9802  163.7667 C.ar    1  UNL1        0.0184
      2 C         140.3730  142.4058  162.3711 C.ar    1  UNL1        0.0200
      3 C         141.0235  143.6173  161.7721 C.ar    1  UNL1        0.1109
      4 C         142.0223  144.4034  162.5686 C.ar    1  UNL1        0.0201
      5 C         142.3706  143.9779  163.9641 C.ar    1  UNL1        0.0197
      6 C         141.7200  142.7663  164.5632 C.ar    1  UNL1        0.1058
      7 C         138.1191  137.1339  166.1628 C.3     1  UNL1        0.0310
      8 C         138.7696  138.3455  165.5638 C.ar    1  UNL1       -0.0218
      9 C         138.0936  139.6814  165.6537 C.ar    1  UNL1       -0.0043
     10 C         138.7441  140.8930  165.0547 C.ar    1  UNL1       -0.0003
     11 C         140.0707  140.7686  164.3657 C.ar    1  UNL1        0.0013
     12 C         140.7467  139.4327  164.2758 C.ar    1  UNL1       -0.0003
     13 C         140.0962  138.2211  164.8748 C.ar    1  UNL1       -0.0043
     14 S         142.0683  142.3407  165.9588 S.O2    1  UNL1        0.0104
     15 C         142.4167  141.9152  167.3543 C.3     1  UNL1        0.1816
     16 O         143.2697  141.6103  165.4362 O.2     1  UNL1       -0.1686
     17 O         140.8670  143.0712  166.4814 O.2     1  UNL1       -0.1686
     18 S         140.6752  144.0429  160.3765 S.O2    1  UNL1        0.0330
     19 O         142.1102  144.4018  160.1277 O.2     1  UNL1       -0.1638
     20 O         139.2402  143.6839  160.6252 O.2     1  UNL1       -0.1638
     21 C         140.3269  144.4683  158.9809 C.ar    1  UNL1        0.1394
     22 C         139.9501  143.5581  157.8498 C.ar    1  UNL1        0.0256
     23 C         139.6845  144.4060  156.6412 C.ar    1  UNL1        0.0054
     24 C         139.8972  145.8403  157.0255 C.ar    1  UNL1        0.0242
     25 S         140.2942  145.8788  158.4715 S.2     1  UNL1       -0.0714
     26 C         139.7404  147.0276  156.1223 C.3     1  UNL1        0.0988
     27 N         138.7968  148.1329  156.4936 N.3     1  UNL1       -0.3170
     28 H         137.8394  147.7813  156.4810 H       1  UNL1        0.1192
     29 H         138.8874  148.8966  155.8235 H       1  UNL1        0.1192
@<TRIPOS>BOND
     1     7     8    1
     2     8     9   ar
     3     9    10   ar
     4    10    11   ar
     5    11     1    1
     6     1     2   ar
     7     2     3   ar
     8     3    18    1
     9    18    19    2
    10    18    20    2
    11    18    21    1
    12    21    22   ar
    13    22    23   ar
    14    23    24   ar
    15    24    26    1
    16    26    27    1
    17    24    25   ar
    18     3     4   ar
    19     4     5   ar
    20     5     6   ar
    21     6    14    1
    22    14    15    1
    23    14    16    2
    24    14    17    2
    25    11    12   ar
    26    12    13   ar
    27    13     8   ar
    28     6     1   ar
    29    25    21   ar
    30    27    28    1
    31    27    29    1
@<TRIPOS>MOLECULE
*****
 29 31 0 0 0
SMALL
GASTEIGER

@<TRIPOS>ATOM
      1 C         141.2277  141.3417  164.5352 C.ar    1  UNL1        0.0184
      2 C         141.0568  141.9208  163.1621 C.ar    1  UNL1        0.0200
      3 C         141.9644  143.0189  162.6929 C.ar    1  UNL1        0.1109
      4 C         143.0430  143.5381  163.5968 C.ar    1  UNL1        0.0201
      5 C         143.2140  142.9590  164.9699 C.ar    1  UNL1        0.0197
      6 C         142.3063  141.8609  165.4391 C.ar    1  UNL1        0.1058
      7 C         137.5970  136.9491  166.4121 C.3     1  UNL1        0.0310
      8 C         138.5047  138.0472  165.9429 C.ar    1  UNL1       -0.0218
      9 C         138.2155  139.4706  166.3173 C.ar    1  UNL1       -0.0043
     10 C         139.1232  140.5688  165.8481 C.ar    1  UNL1       -0.0003
     11 C         140.3200  140.2436  165.0045 C.ar    1  UNL1        0.0013
     12 C         140.6092  138.8201  164.6301 C.ar    1  UNL1       -0.0003
     13 C         139.7015  137.7220  165.0993 C.ar    1  UNL1       -0.0043
     14 S         142.4773  141.2818  166.8123 S.O2    1  UNL1        0.0104
     15 C         142.6483  140.7028  168.1854 C.3     1  UNL1        0.1816
     16 O         143.3210  140.1802  166.2426 O.2     1  UNL1       -0.1686
     17 O         141.6337  142.3835  167.3819 O.2     1  UNL1       -0.1686
     18 S         141.7934  143.5980  161.3197 S.O2    1  UNL1        0.0330
     19 O         140.5327  142.8049  161.1422 O.2     1  UNL1       -0.1638
     20 O         143.0542  144.3910  161.4972 O.2     1  UNL1       -0.1638
     21 C         141.6225  144.1770  159.9466 C.ar    1  UNL1        0.1394
     22 C         142.4791  143.8800  158.7516 C.ar    1  UNL1        0.0256
     23 C         141.9509  144.6741  157.5938 C.ar    1  UNL1        0.0054
     24 C         140.7679  145.4619  158.0734 C.ar    1  UNL1        0.0242
     25 S         140.5650  145.1547  159.5274 S.2     1  UNL1       -0.0714
     26 C         139.9342  146.3935  157.2443 C.3     1  UNL1        0.0988
     27 N         140.5293  147.0628  156.0410 N.3     1  UNL1       -0.3170
     28 H         141.2616  147.7077  156.3381 H       1  UNL1        0.1192
     29 H         139.8026  147.5787  155.5448 H       1  UNL1        0.1192
@<TRIPOS>BOND
     1     7     8    1
     2     8     9   ar
     3     9    10   ar
     4    10    11   ar
     5    11     1    1
     6     1     2   ar
     7     2     3   ar
     8     3    18    1
     9    18    19    2
    10    18    20    2
    11    18    21    1
    12    21    22   ar
    13    22    23   ar
    14    23    24   ar
    15    24    26    1
    16    26    27    1
    17    24    25   ar
    18     3     4   ar
    19     4     5   ar
    20     5     6   ar
    21     6    14    1
    22    14    15    1
    23    14    16    2
    24    14    17    2
    25    11    12   ar
    26    12    13   ar
    27    13     8   ar
    28     6     1   ar
    29    25    21   ar
    30    27    28    1
    31    27    29    1
@<TRIPOS>MOLECULE
*****
 29 31 0 0 0
SMALL
GASTEIGER

@<TRIPOS>ATOM
      1 C         142.2204  141.8537  162.7496 C.ar    1  UNL1        0.0184
      2 C         141.7402  140.9927  161.6192 C.ar    1  UNL1        0.0200
      3 C         142.7198  140.1743  160.8313 C.ar    1  UNL1        0.1109
      4 C         144.1795  140.2169  161.1739 C.ar    1  UNL1        0.0201
      5 C         144.6596  141.0780  162.3044 C.ar    1  UNL1        0.0197
      6 C         143.6801  141.8964  163.0923 C.ar    1  UNL1        0.1058
      7 C         138.3022  145.1274  165.9010 C.3     1  UNL1        0.0310
      8 C         139.2818  144.3089  165.1132 C.ar    1  UNL1       -0.0218
      9 C         139.6683  142.9397  165.5882 C.ar    1  UNL1       -0.0043
     10 C         140.6478  142.1213  164.8003 C.ar    1  UNL1       -0.0003
     11 C         141.2408  142.6721  163.5375 C.ar    1  UNL1        0.0013
     12 C         140.8543  144.0414  163.0625 C.ar    1  UNL1       -0.0003
     13 C         139.8748  144.8598  163.8503 C.ar    1  UNL1       -0.0043
     14 S         144.1603  142.7574  164.2228 S.O2    1  UNL1        0.0104
     15 C         144.6405  143.6184  165.3533 C.3     1  UNL1        0.1816
     16 O         144.0115  141.6012  165.1666 O.2     1  UNL1       -0.1686
     17 O         144.3091  143.9137  163.2790 O.2     1  UNL1       -0.1686
     18 S         142.2396  139.3132  159.7008 S.O2    1  UNL1        0.0330
     19 O         143.6409  138.8282  159.4749 O.2     1  UNL1       -0.1638
     20 O         140.8383  139.7982  159.9267 O.2     1  UNL1       -0.1638
     21 C         141.7593  138.4522  158.5703 C.ar    1  UNL1        0.1394
     22 C         140.3831  138.4671  157.9737 C.ar    1  UNL1        0.0256
     23 C         140.3442  137.4492  156.8726 C.ar    1  UNL1        0.0054
     24 C         141.6964  136.8052  156.7888 C.ar    1  UNL1        0.0242
     25 S         142.5709  137.4251  157.8380 S.2     1  UNL1       -0.0714
     26 C         142.1026  135.7301  155.8249 C.3     1  UNL1        0.0988
     27 N         141.0921  134.7293  155.3481 N.3     1  UNL1       -0.3170
     28 H         140.7906  134.1506  156.1321 H       1  UNL1        0.1192
     29 H         141.5116  134.1380  154.6306 H       1  UNL1        0.1192
@<TRIPOS>BOND
     1     7     8    1
     2     8     9   ar
     3     9    10   ar
     4    10    11   ar
     5    11     1    1
     6     1     2   ar
     7     2     3   ar
     8     3    18    1
     9    18    19    2
    10    18    20    2
    11    18    21    1
    12    21    22   ar
    13    22    23   ar
    14    23    24   ar
    15    24    26    1
    16    26    27    1
    17    24    25   ar
    18     3     4   ar
    19     4     5   ar
    20     5     6   ar
    21     6    14    1
    22    14    15    1
    23    14    16    2
    24    14    17    2
    25    11    12   ar
    26    12    13   ar
    27    13     8   ar
    28     6     1   ar
    29    25    21   ar
    30    27    28    1
    31    27    29    1
@<TRIPOS>MOLECULE
*****
 29 31 0 0 0
SMALL
GASTEIGER

@<TRIPOS>ATOM
      1 C         141.7340  140.1659  162.4599 C.ar    1  UNL1        0.0184
      2 C         141.3003  140.6304  163.8186 C.ar    1  UNL1        0.0200
      3 C         141.0633  139.6316  164.9124 C.ar    1  UNL1        0.1109
      4 C         141.2602  138.1684  164.6475 C.ar    1  UNL1        0.0201
      5 C         141.6939  137.7039  163.2888 C.ar    1  UNL1        0.0197
      6 C         141.9309  138.7027  162.1950 C.ar    1  UNL1        0.1058
      7 C         142.6817  144.1608  158.0847 C.3     1  UNL1        0.0310
      8 C         142.4448  143.1621  159.1785 C.ar    1  UNL1       -0.0218
      9 C         143.5783  142.7365  160.0640 C.ar    1  UNL1       -0.0043
     10 C         143.3414  141.7378  161.1578 C.ar    1  UNL1       -0.0003
     11 C         141.9710  141.1646  161.3661 C.ar    1  UNL1        0.0013
     12 C         140.8375  141.5902  160.4806 C.ar    1  UNL1       -0.0003
     13 C         141.0744  142.5889  159.3868 C.ar    1  UNL1       -0.0043
     14 S         142.3646  138.2381  160.8363 S.O2    1  UNL1        0.0104
     15 C         142.7984  137.7736  159.4777 C.3     1  UNL1        0.1816
     16 O         143.7969  138.2781  161.2800 O.2     1  UNL1       -0.1686
     17 O         140.9323  138.1981  160.3927 O.2     1  UNL1       -0.1686
     18 S         140.6296  140.0962  166.2711 S.O2    1  UNL1        0.0330
     19 O         139.2078  140.1561  165.7968 O.2     1  UNL1       -0.1638
     20 O         142.0513  140.0363  166.7455 O.2     1  UNL1       -0.1638
     21 C         140.1959  140.5607  167.6298 C.ar    1  UNL1        0.1394
     22 C         139.2771  139.8266  168.5610 C.ar    1  UNL1        0.0256
     23 C         139.1182  140.6531  169.8026 C.ar    1  UNL1        0.0054
     24 C         139.9387  141.8981  169.6387 C.ar    1  UNL1        0.0242
     25 S         140.6047  141.8410  168.2959 S.2     1  UNL1       -0.0714
     26 C         140.0701  143.0058  170.6417 C.3     1  UNL1        0.0988
     27 N         138.8911  143.4021  171.4802 N.3     1  UNL1       -0.3170
     28 H         138.1664  143.7986  170.8819 H       1  UNL1        0.1192
     29 H         139.1815  144.0966  172.1684 H       1  UNL1        0.1192
@<TRIPOS>BOND
     1     7     8    1
     2     8     9   ar
     3     9    10   ar
     4    10    11   ar
     5    11     1    1
     6     1     2   ar
     7     2     3   ar
     8     3    18    1
     9    18    19    2
    10    18    20    2
    11    18    21    1
    12    21    22   ar
    13    22    23   ar
    14    23    24   ar
    15    24    26    1
    16    26    27    1
    17    24    25   ar
    18     3     4   ar
    19     4     5   ar
    20     5     6   ar
    21     6    14    1
    22    14    15    1
    23    14    16    2
    24    14    17    2
    25    11    12   ar
    26    12    13   ar
    27    13     8   ar
    28     6     1   ar
    29    25    21   ar
    30    27    28    1
    31    27    29    1
@<TRIPOS>MOLECULE
*****
 29 31 0 0 0
SMALL
GASTEIGER

@<TRIPOS>ATOM
      1 C         140.3484  142.1697  162.2223 C.ar    1  UNL1        0.0184
      2 C         140.9374  142.3501  163.5899 C.ar    1  UNL1        0.0200
      3 C         140.5381  141.4305  164.7057 C.ar    1  UNL1        0.1109
      4 C         139.5500  140.3305  164.4538 C.ar    1  UNL1        0.0201
      5 C         138.9611  140.1501  163.0861 C.ar    1  UNL1        0.0197
      6 C         139.3603  141.0697  161.9703 C.ar    1  UNL1        0.1058
      7 C         141.9454  145.8482  157.7593 C.3     1  UNL1        0.0310
      8 C         141.5461  144.9286  158.8750 C.ar    1  UNL1       -0.0218
      9 C         140.4042  145.2944  159.7762 C.ar    1  UNL1       -0.0043
     10 C         140.0050  144.3748  160.8919 C.ar    1  UNL1       -0.0003
     11 C         140.7477  143.0894  161.1065 C.ar    1  UNL1        0.0013
     12 C         141.8896  142.7236  160.2053 C.ar    1  UNL1       -0.0003
     13 C         142.2888  143.6432  159.0896 C.ar    1  UNL1       -0.0043
     14 S         138.7713  140.8893  160.6026 S.O2    1  UNL1        0.0104
     15 C         138.1824  140.7089  159.2349 C.3     1  UNL1        0.1816
     16 O         139.8813  139.9442  160.2493 O.2     1  UNL1       -0.1686
     17 O         137.6614  141.8344  160.9558 O.2     1  UNL1       -0.1686
     18 S         141.1271  141.6109  166.0734 S.O2    1  UNL1        0.0330
     19 O         141.3235  140.1280  166.1845 O.2     1  UNL1       -0.1638
     20 O         140.9307  143.0938  165.9623 O.2     1  UNL1       -0.1638
     21 C         141.7160  141.7914  167.4411 C.ar    1  UNL1        0.1394
     22 C         143.1195  142.2236  167.7467 C.ar    1  UNL1        0.0256
     23 C         143.2758  142.2707  169.2378 C.ar    1  UNL1        0.0054
     24 C         141.9688  141.8675  169.8537 C.ar    1  UNL1        0.0242
     25 S         141.0049  141.5712  168.7433 S.2     1  UNL1       -0.0714
     26 C         141.6771  141.7765  171.3223 C.3     1  UNL1        0.0988
     27 N         140.7941  140.6824  171.8452 N.3     1  UNL1       -0.3170
     28 H         139.8465  140.8116  171.4906 H       1  UNL1        0.1192
     29 H         140.7827  140.7127  172.8646 H       1  UNL1        0.1192
@<TRIPOS>BOND
     1     7     8    1
     2     8     9   ar
     3     9    10   ar
     4    10    11   ar
     5    11     1    1
     6     1     2   ar
     7     2     3   ar
     8     3    18    1
     9    18    19    2
    10    18    20    2
    11    18    21    1
    12    21    22   ar
    13    22    23   ar
    14    23    24   ar
    15    24    26    1
    16    26    27    1
    17    24    25   ar
    18     3     4   ar
    19     4     5   ar
    20     5     6   ar
    21     6    14    1
    22    14    15    1
    23    14    16    2
    24    14    17    2
    25    11    12   ar
    26    12    13   ar
    27    13     8   ar
    28     6     1   ar
    29    25    21   ar
    30    27    28    1
    31    27    29    1
@<TRIPOS>MOLECULE
*****
 29 31 0 0 0
SMALL
GASTEIGER

@<TRIPOS>ATOM
      1 C         141.1037  139.9468  164.2978 C.ar    1  UNL1        0.0184
      2 C         141.9502  140.4444  163.1639 C.ar    1  UNL1        0.0200
      3 C         141.4913  140.2593  161.7479 C.ar    1  UNL1        0.1109
      4 C         140.1858  139.5767  161.4658 C.ar    1  UNL1        0.0201
      5 C         139.3393  139.0791  162.5997 C.ar    1  UNL1        0.0197
      6 C         139.7982  139.2642  164.0157 C.ar    1  UNL1        0.1058
      7 C         142.9396  140.6872  169.9619 C.3     1  UNL1        0.0310
      8 C         142.4806  140.5021  168.5459 C.ar    1  UNL1       -0.0218
      9 C         142.8589  139.2624  167.7908 C.ar    1  UNL1       -0.0043
     10 C         142.3999  139.0773  166.3748 C.ar    1  UNL1       -0.0003
     11 C         141.5627  140.1319  165.7139 C.ar    1  UNL1        0.0013
     12 C         141.1845  141.3716  166.4689 C.ar    1  UNL1       -0.0003
     13 C         141.6435  141.5567  167.8849 C.ar    1  UNL1       -0.0043
     14 S         138.9517  138.7665  165.1497 S.O2    1  UNL1        0.0104
     15 C         138.1051  138.2690  166.2835 C.3     1  UNL1        0.1816
     16 O         138.2337  140.0828  165.1912 O.2     1  UNL1       -0.1686
     17 O         139.6696  137.4502  165.1081 O.2     1  UNL1       -0.1686
     18 S         142.3378  140.7570  160.6140 S.O2    1  UNL1        0.0330
     19 O         143.2881  141.3766  161.5953 O.2     1  UNL1       -0.1638
     20 O         141.3876  140.1374  159.6327 O.2     1  UNL1       -0.1638
     21 C         143.1844  141.2546  159.4801 C.ar    1  UNL1        0.1394
     22 C         143.4665  142.6915  159.1549 C.ar    1  UNL1        0.0256
     23 C         144.3539  142.7276  157.9461 C.ar    1  UNL1        0.0054
     24 C         144.6202  141.3129  157.5242 C.ar    1  UNL1        0.0242
     25 S         143.8974  140.4026  158.4723 S.2     1  UNL1       -0.0714
     26 C         145.4616  140.8840  156.3588 C.3     1  UNL1        0.0988
     27 N         145.6074  139.4266  156.0352 N.3     1  UNL1       -0.3170
     28 H         146.1101  138.9594  156.7898 H       1  UNL1        0.1192
     29 H         146.1279  139.3222  155.1642 H       1  UNL1        0.1192
@<TRIPOS>BOND
     1     7     8    1
     2     8     9   ar
     3     9    10   ar
     4    10    11   ar
     5    11     1    1
     6     1     2   ar
     7     2     3   ar
     8     3    18    1
     9    18    19    2
    10    18    20    2
    11    18    21    1
    12    21    22   ar
    13    22    23   ar
    14    23    24   ar
    15    24    26    1
    16    26    27    1
    17    24    25   ar
    18     3     4   ar
    19     4     5   ar
    20     5     6   ar
    21     6    14    1
    22    14    15    1
    23    14    16    2
    24    14    17    2
    25    11    12   ar
    26    12    13   ar
    27    13     8   ar
    28     6     1   ar
    29    25    21   ar
    30    27    28    1
    31    27    29    1
