@<TRIPOS>MOLECULE
*****
 37 40 0 0 0
SMALL
GASTEIGER

@<TRIPOS>ATOM
      1 S         143.3446  140.3980  165.6579 S.O2    1  UNL1        0.0736
      2 O         143.9100  139.0634  165.2718 O.2     1  UNL1       -0.1499
      3 O         142.7792  141.7327  166.0440 O.2     1  UNL1       -0.1499
      4 C         143.7125  140.9438  164.3100 C.ar    1  UNL1        0.1251
      5 C         143.8180  142.4258  164.1042 C.ar    1  UNL1        0.0199
      6 C         144.1859  142.9716  162.7563 C.ar    1  UNL1       -0.0029
      7 C         144.4484  142.0353  161.6142 C.ar    1  UNL1       -0.0220
      8 C         144.3430  140.5531  161.8201 C.ar    1  UNL1       -0.0029
      9 C         143.9751  140.0074  163.1679 C.ar    1  UNL1        0.0199
     10 C         144.8164  142.5809  160.2664 C.3     1  UNL1        0.0289
     11 C         143.8328  142.5130  159.1358 C.3     1  UNL1        0.0367
     12 C         142.9759  143.7015  158.8147 C.3     1  UNL1        0.1426
     13 O         142.2529  144.4235  159.9128 O.3     1  UNL1       -0.3522
     14 C         140.7818  144.6909  159.7930 C.3     1  UNL1        0.1605
     15 C         139.8847  144.4938  160.9788 C.3     1  UNL1        0.1173
     16 C         140.0330  145.3721  162.1857 C.3     1  UNL1        0.1606
     17 O         139.1357  145.1749  163.3716 O.3     1  UNL1       -0.3508
     18 C         138.0903  144.0995  163.3505 C.3     1  UNL1        0.1595
     19 C         137.9420  143.2212  162.1436 C.3     1  UNL1        0.1047
     20 N         138.8392  143.4184  160.9578 N.3     1  UNL1       -0.2664
     21 C         138.6909  142.5400  159.7509 C.3     1  UNL1        0.0898
     22 N         142.9767  139.8523  167.0057 N.pl3   1  UNL1       -0.2152
     23 H         143.6777  139.5101  167.6064 H       1  UNL1        0.1737
     24 C         141.1680  140.2590  168.8260 C.ar    1  UNL1       -0.0074
     25 C         139.7321  140.2346  169.2588 C.ar    1  UNL1       -0.0014
     26 C         138.6686  139.7790  168.3040 C.ar    1  UNL1        0.0207
     27 C         139.0412  139.3478  166.9165 C.ar    1  UNL1        0.1036
     28 N         138.2181  138.8533  165.7641 N.ar    1  UNL1       -0.1692
     29 N         139.1454  138.5722  164.6192 N.ar    1  UNL1       -0.2473
     30 C         138.7466  138.0602  163.2668 C.3     1  UNL1        0.1538
     31 C         140.5416  138.8929  165.0639 C.ar    1  UNL1        0.0979
     32 C         140.4772  139.3722  166.4837 C.ar    1  UNL1        0.0524
     33 C         141.5406  139.8278  167.4385 C.ar    1  UNL1        0.0637
     34 C         142.2316  140.7146  169.7808 C.3     1  UNL1        0.0276
     35 C         141.5920  143.2322  169.8296 C.3     1  UNL1        0.0003
     36 C         142.6387  142.1579  169.8168 C.3     1  UNL1        0.0044
     37 C         144.0924  142.5268  169.8401 C.3     1  UNL1        0.0003
@<TRIPOS>BOND
     1    35    36    1
     2    36    37    1
     3    36    34    1
     4    34    24    1
     5    24    25   ar
     6    25    26   ar
     7    26    27   ar
     8    27    28   ar
     9    28    29   ar
    10    29    30    1
    11    29    31   ar
    12    31    32   ar
    13    32    33   ar
    14    33    22    1
    15    22     1    1
    16     1     2    2
    17     1     3    2
    18     1     4    1
    19     4     5   ar
    20     5     6   ar
    21     6     7   ar
    22     7    10    1
    23    10    11    1
    24    11    12    1
    25    12    13    1
    26    13    14    1
    27    15    14    1
    28    15    16    1
    29    16    17    1
    30    17    18    1
    31    18    19    1
    32    19    20    1
    33    20    21    1
    34     7     8   ar
    35     8     9   ar
    36    33    24   ar
    37     9     4   ar
    38    32    27   ar
    39    20    15    1
    40    22    23    1
@<TRIPOS>MOLECULE
*****
 37 40 0 0 0
SMALL
GASTEIGER

@<TRIPOS>ATOM
      1 S         142.1960  137.9808  160.7678 S.O2    1  UNL1        0.0736
      2 O         141.0074  138.2376  159.8895 O.2     1  UNL1       -0.1499
      3 O         143.3846  137.7240  161.6460 O.2     1  UNL1       -0.1499
      4 C         141.2943  137.8977  161.9637 C.ar    1  UNL1        0.1251
      5 C         141.8809  137.8504  163.3434 C.ar    1  UNL1        0.0199
      6 C         140.9793  137.7673  164.5393 C.ar    1  UNL1       -0.0029
      7 C         139.4910  137.7314  164.3555 C.ar    1  UNL1       -0.0220
      8 C         138.9044  137.7787  162.9757 C.ar    1  UNL1       -0.0029
      9 C         139.8061  137.8618  161.7798 C.ar    1  UNL1        0.0199
     10 C         138.5894  137.6483  165.5513 C.3     1  UNL1        0.0289
     11 C         138.3783  138.8553  166.4167 C.3     1  UNL1        0.0367
     12 C         138.8462  140.2025  165.9520 C.3     1  UNL1        0.1426
     13 O         138.0487  140.9638  164.9349 O.3     1  UNL1       -0.3522
     14 C         138.6449  141.2750  163.5942 C.3     1  UNL1        0.1605
     15 C         138.9534  142.6950  163.2220 C.3     1  UNL1        0.1173
     16 C         137.8568  143.6004  162.7447 C.3     1  UNL1        0.1606
     17 O         138.1654  145.0204  162.3725 O.3     1  UNL1       -0.3508
     18 C         139.5704  145.5349  162.4776 C.3     1  UNL1        0.1595
     19 C         140.6670  144.6295  162.9549 C.3     1  UNL1        0.1047
     20 N         140.3585  143.2096  163.3271 N.3     1  UNL1       -0.2664
     21 C         141.4550  142.3042  163.8043 C.3     1  UNL1        0.0898
     22 N         143.0976  138.0639  159.5719 N.pl3   1  UNL1       -0.2152
     23 H         143.7009  137.3161  159.3574 H       1  UNL1        0.1737
     24 C         142.7088  139.1712  157.2540 C.ar    1  UNL1       -0.0074
     25 C         142.6911  140.3936  156.3849 C.ar    1  UNL1       -0.0014
     26 C         143.0445  141.7312  156.9646 C.ar    1  UNL1        0.0207
     27 C         143.4156  141.8463  158.4134 C.ar    1  UNL1        0.1036
     28 N         143.8079  143.0218  159.2586 N.ar    1  UNL1       -0.1692
     29 N         144.0681  142.5258  160.6501 N.ar    1  UNL1       -0.2473
     30 C         144.4863  143.3645  161.8212 C.3     1  UNL1        0.1538
     31 C         143.8365  141.0438  160.6649 C.ar    1  UNL1        0.0979
     32 C         143.4333  140.6239  159.2825 C.ar    1  UNL1        0.0524
     33 C         143.0799  139.2863  158.7028 C.ar    1  UNL1        0.0637
     34 C         142.3554  137.8336  156.6743 C.3     1  UNL1        0.0276
     35 C         144.5354  137.5007  155.3009 C.3     1  UNL1        0.0003
     36 C         143.4354  136.9348  156.1492 C.3     1  UNL1        0.0044
     37 C         143.4155  135.4702  156.4724 C.3     1  UNL1        0.0003
@<TRIPOS>BOND
     1    35    36    1
     2    36    37    1
     3    36    34    1
     4    34    24    1
     5    24    25   ar
     6    25    26   ar
     7    26    27   ar
     8    27    28   ar
     9    28    29   ar
    10    29    30    1
    11    29    31   ar
    12    31    32   ar
    13    32    33   ar
    14    33    22    1
    15    22     1    1
    16     1     2    2
    17     1     3    2
    18     1     4    1
    19     4     5   ar
    20     5     6   ar
    21     6     7   ar
    22     7    10    1
    23    10    11    1
    24    11    12    1
    25    12    13    1
    26    13    14    1
    27    15    14    1
    28    15    16    1
    29    16    17    1
    30    17    18    1
    31    18    19    1
    32    19    20    1
    33    20    21    1
    34     7     8   ar
    35     8     9   ar
    36    33    24   ar
    37     9     4   ar
    38    32    27   ar
    39    20    15    1
    40    22    23    1
@<TRIPOS>MOLECULE
*****
 37 40 0 0 0
SMALL
GASTEIGER

@<TRIPOS>ATOM
      1 S         139.6774  142.9207  164.0168 S.O2    1  UNL1        0.0736
      2 O         140.9918  143.4895  164.4628 O.2     1  UNL1       -0.1499
      3 O         138.3630  142.3519  163.5707 O.2     1  UNL1       -0.1499
      4 C         139.8542  143.5655  162.6740 C.ar    1  UNL1        0.1251
      5 C         139.4954  142.8125  161.4273 C.ar    1  UNL1        0.0199
      6 C         139.6721  143.4573  160.0846 C.ar    1  UNL1       -0.0029
      7 C         140.2077  144.8551  159.9884 C.ar    1  UNL1       -0.0220
      8 C         140.5665  145.6081  161.2352 C.ar    1  UNL1       -0.0029
      9 C         140.3898  144.9633  162.5779 C.ar    1  UNL1        0.0199
     10 C         140.3844  145.4999  158.6457 C.3     1  UNL1        0.0289
     11 C         141.7010  145.4007  157.9336 C.3     1  UNL1        0.0367
     12 C         142.5190  144.1480  158.0406 C.3     1  UNL1        0.1426
     13 O         143.3399  143.8908  159.2694 O.3     1  UNL1       -0.3522
     14 C         143.2221  142.5802  159.9893 C.3     1  UNL1        0.1605
     15 C         143.7160  142.4523  161.3999 C.3     1  UNL1        0.1173
     16 C         143.8338  143.6709  162.2667 C.3     1  UNL1        0.1606
     17 O         144.3277  143.5429  163.6773 O.3     1  UNL1       -0.3508
     18 C         144.7037  142.1966  164.2210 C.3     1  UNL1        0.1595
     19 C         144.5859  140.9780  163.3543 C.3     1  UNL1        0.1047
     20 N         144.0920  141.1059  161.9437 N.3     1  UNL1       -0.2664
     21 C         143.9742  139.8874  161.0770 C.3     1  UNL1        0.0898
     22 N         139.5007  142.2760  165.3595 N.pl3   1  UNL1       -0.2152
     23 H         138.6858  142.4477  165.8846 H       1  UNL1        0.1737
     24 C         141.1687  141.6429  167.2482 C.ar    1  UNL1       -0.0074
     25 C         142.2334  140.7365  167.7909 C.ar    1  UNL1       -0.0014
     26 C         142.6952  139.5568  166.9878 C.ar    1  UNL1        0.0207
     27 C         142.0921  139.2834  165.6419 C.ar    1  UNL1        0.1036
     28 N         142.3435  138.2055  164.6296 N.ar    1  UNL1       -0.1692
     29 N         141.4341  138.4457  163.4612 N.ar    1  UNL1       -0.2473
     30 C         141.3524  137.6068  162.2204 C.3     1  UNL1        0.1538
     31 C         140.6206  139.6721  163.7513 C.ar    1  UNL1        0.0979
     32 C         141.0272  140.1898  165.0991 C.ar    1  UNL1        0.0524
     33 C         140.5655  141.3696  165.9023 C.ar    1  UNL1        0.0637
     34 C         140.7069  142.8227  168.0514 C.3     1  UNL1        0.0276
     35 C         141.9852  143.3957  170.2394 C.3     1  UNL1        0.0003
     36 C         140.7982  142.7929  169.5483 C.3     1  UNL1        0.0044
     37 C         139.7025  142.1603  170.3542 C.3     1  UNL1        0.0003
@<TRIPOS>BOND
     1    35    36    1
     2    36    37    1
     3    36    34    1
     4    34    24    1
     5    24    25   ar
     6    25    26   ar
     7    26    27   ar
     8    27    28   ar
     9    28    29   ar
    10    29    30    1
    11    29    31   ar
    12    31    32   ar
    13    32    33   ar
    14    33    22    1
    15    22     1    1
    16     1     2    2
    17     1     3    2
    18     1     4    1
    19     4     5   ar
    20     5     6   ar
    21     6     7   ar
    22     7    10    1
    23    10    11    1
    24    11    12    1
    25    12    13    1
    26    13    14    1
    27    15    14    1
    28    15    16    1
    29    16    17    1
    30    17    18    1
    31    18    19    1
    32    19    20    1
    33    20    21    1
    34     7     8   ar
    35     8     9   ar
    36    33    24   ar
    37     9     4   ar
    38    32    27   ar
    39    20    15    1
    40    22    23    1
@<TRIPOS>MOLECULE
*****
 37 40 0 0 0
SMALL
GASTEIGER

@<TRIPOS>ATOM
      1 S         144.2863  140.4965  163.3881 S.O2    1  UNL1        0.0736
      2 O         142.9998  139.9756  162.8192 O.2     1  UNL1       -0.1499
      3 O         145.5728  141.0175  163.9569 O.2     1  UNL1       -0.1499
      4 C         143.7318  140.3522  164.7743 C.ar    1  UNL1        0.1251
      5 C         143.4473  138.9884  165.3301 C.ar    1  UNL1        0.0199
      6 C         142.8928  138.8440  166.7164 C.ar    1  UNL1       -0.0029
      7 C         142.6227  140.0636  167.5469 C.ar    1  UNL1       -0.0220
      8 C         142.9072  141.4275  166.9910 C.ar    1  UNL1       -0.0029
      9 C         143.4617  141.5718  165.6048 C.ar    1  UNL1        0.0199
     10 C         142.0682  139.9193  168.9331 C.3     1  UNL1        0.0289
     11 C         140.6006  140.1106  169.1774 C.3     1  UNL1        0.0367
     12 C         139.6065  139.7008  168.1315 C.3     1  UNL1        0.1426
     13 O         139.1345  140.6969  167.1142 O.3     1  UNL1       -0.3522
     14 C         139.7922  140.7627  165.7677 C.3     1  UNL1        0.1605
     15 C         139.3308  139.8593  164.6627 C.3     1  UNL1        0.1173
     16 C         139.8122  138.4398  164.6041 C.3     1  UNL1        0.1606
     17 O         139.3507  137.5364  163.4991 O.3     1  UNL1       -0.3508
     18 C         138.4080  138.0525  162.4528 C.3     1  UNL1        0.1595
     19 C         137.9265  139.4720  162.5114 C.3     1  UNL1        0.1047
     20 N         138.3880  140.3753  163.6164 N.3     1  UNL1       -0.2664
     21 C         137.9066  141.7947  163.6750 C.3     1  UNL1        0.0898
     22 N         144.8408  140.6409  162.0018 N.pl3   1  UNL1       -0.2152
     23 H         145.7580  140.3423  161.8050 H       1  UNL1        0.1737
     24 C         143.6952  142.7093  160.9252 C.ar    1  UNL1       -0.0074
     25 C         142.8522  143.3087  159.8390 C.ar    1  UNL1       -0.0014
     26 C         142.3118  142.4389  158.7428 C.ar    1  UNL1        0.0207
     27 C         142.6144  140.9698  158.7330 C.ar    1  UNL1        0.1036
     28 N         142.2233  139.8708  157.7901 N.ar    1  UNL1       -0.1692
     29 N         142.8246  138.5922  158.2937 N.ar    1  UNL1       -0.2473
     30 C         142.6873  137.2418  157.6552 C.3     1  UNL1        0.1538
     31 C         143.5873  138.9010  159.5478 C.ar    1  UNL1        0.0979
     32 C         143.4574  140.3705  159.8194 C.ar    1  UNL1        0.0524
     33 C         143.9978  141.2402  160.9155 C.ar    1  UNL1        0.0637
     34 C         144.2356  143.5791  162.0214 C.3     1  UNL1        0.0276
     35 C         141.9011  143.6332  163.1602 C.3     1  UNL1        0.0003
     36 C         143.3093  144.1399  163.0594 C.3     1  UNL1        0.0044
     37 C         143.7911  145.2075  163.9965 C.3     1  UNL1        0.0003
@<TRIPOS>BOND
     1    35    36    1
     2    36    37    1
     3    36    34    1
     4    34    24    1
     5    24    25   ar
     6    25    26   ar
     7    26    27   ar
     8    27    28   ar
     9    28    29   ar
    10    29    30    1
    11    29    31   ar
    12    31    32   ar
    13    32    33   ar
    14    33    22    1
    15    22     1    1
    16     1     2    2
    17     1     3    2
    18     1     4    1
    19     4     5   ar
    20     5     6   ar
    21     6     7   ar
    22     7    10    1
    23    10    11    1
    24    11    12    1
    25    12    13    1
    26    13    14    1
    27    15    14    1
    28    15    16    1
    29    16    17    1
    30    17    18    1
    31    18    19    1
    32    19    20    1
    33    20    21    1
    34     7     8   ar
    35     8     9   ar
    36    33    24   ar
    37     9     4   ar
    38    32    27   ar
    39    20    15    1
    40    22    23    1
@<TRIPOS>MOLECULE
*****
 37 40 0 0 0
SMALL
GASTEIGER

@<TRIPOS>ATOM
      1 S         143.4891  142.2883  163.8809 S.O2    1  UNL1        0.0736
      2 O         142.8852  141.1171  163.1643 O.2     1  UNL1       -0.1499
      3 O         144.0931  143.4596  164.5974 O.2     1  UNL1       -0.1499
      4 C         143.2233  141.6200  165.1972 C.ar    1  UNL1        0.1251
      5 C         143.0651  140.1298  165.2633 C.ar    1  UNL1        0.0199
      6 C         142.7993  139.4615  166.5796 C.ar    1  UNL1       -0.0029
      7 C         142.6918  140.2833  167.8299 C.ar    1  UNL1       -0.0220
      8 C         142.8500  141.7735  167.7637 C.ar    1  UNL1       -0.0029
      9 C         143.1158  142.4419  166.4474 C.ar    1  UNL1        0.0199
     10 C         142.4260  139.6151  169.1462 C.3     1  UNL1        0.0289
     11 C         141.0544  139.6689  169.7512 C.3     1  UNL1        0.0367
     12 C         139.9158  140.2634  168.9765 C.3     1  UNL1        0.1426
     13 O         139.3709  139.5479  167.7760 O.3     1  UNL1       -0.3522
     14 C         139.2250  140.2747  166.4720 C.3     1  UNL1        0.1605
     15 C         139.0796  139.5016  165.1948 C.3     1  UNL1        0.1173
     16 C         139.6501  138.1186  165.0860 C.3     1  UNL1        0.1606
     17 O         139.5047  137.3457  163.8087 O.3     1  UNL1       -0.3508
     18 C         138.7887  137.9557  162.6404 C.3     1  UNL1        0.1595
     19 C         138.2181  139.3386  162.7491 C.3     1  UNL1        0.1047
     20 N         138.3636  140.1116  164.0263 N.3     1  UNL1       -0.2664
     21 C         137.7930  141.4946  164.1350 C.3     1  UNL1        0.0898
     22 N         143.7549  142.9566  162.5645 N.pl3   1  UNL1       -0.2152
     23 H         144.6801  143.1463  162.2867 H       1  UNL1        0.1737
     24 C         142.7446  143.2017  160.1835 C.ar    1  UNL1       -0.0074
     25 C         141.6008  143.5810  159.2905 C.ar    1  UNL1       -0.0014
     26 C         140.3231  144.0946  159.8854 C.ar    1  UNL1        0.0207
     27 C         140.1894  144.2289  161.3734 C.ar    1  UNL1        0.1036
     28 N         139.0610  144.7018  162.2411 N.ar    1  UNL1       -0.1692
     29 N         139.5075  144.6148  163.6704 N.ar    1  UNL1       -0.2473
     30 C         138.6927  144.9889  164.8730 C.3     1  UNL1        0.1538
     31 C         140.9119  144.0881  163.6861 C.ar    1  UNL1        0.0979
     32 C         141.3334  143.8495  162.2664 C.ar    1  UNL1        0.0524
     33 C         142.6110  143.3359  161.6715 C.ar    1  UNL1        0.0637
     34 C         144.0223  142.6880  159.5886 C.3     1  UNL1        0.0276
     35 C         143.6132  140.1289  159.7716 C.3     1  UNL1        0.0003
     36 C         144.0682  141.3183  158.9790 C.3     1  UNL1        0.0044
     37 C         144.5692  141.1379  157.5766 C.3     1  UNL1        0.0003
@<TRIPOS>BOND
     1    35    36    1
     2    36    37    1
     3    36    34    1
     4    34    24    1
     5    24    25   ar
     6    25    26   ar
     7    26    27   ar
     8    27    28   ar
     9    28    29   ar
    10    29    30    1
    11    29    31   ar
    12    31    32   ar
    13    32    33   ar
    14    33    22    1
    15    22     1    1
    16     1     2    2
    17     1     3    2
    18     1     4    1
    19     4     5   ar
    20     5     6   ar
    21     6     7   ar
    22     7    10    1
    23    10    11    1
    24    11    12    1
    25    12    13    1
    26    13    14    1
    27    15    14    1
    28    15    16    1
    29    16    17    1
    30    17    18    1
    31    18    19    1
    32    19    20    1
    33    20    21    1
    34     7     8   ar
    35     8     9   ar
    36    33    24   ar
    37     9     4   ar
    38    32    27   ar
    39    20    15    1
    40    22    23    1
@<TRIPOS>MOLECULE
*****
 37 40 0 0 0
SMALL
GASTEIGER

@<TRIPOS>ATOM
      1 S         142.1132  137.9759  160.7529 S.O2    1  UNL1        0.0736
      2 O         140.9259  138.2908  159.8920 O.2     1  UNL1       -0.1499
      3 O         143.3006  137.6610  161.6137 O.2     1  UNL1       -0.1499
      4 C         141.2199  137.8944  161.9551 C.ar    1  UNL1        0.1251
      5 C         139.7304  137.9526  161.7882 C.ar    1  UNL1        0.0199
      6 C         138.8372  137.8711  162.9905 C.ar    1  UNL1       -0.0029
      7 C         139.4335  137.7315  164.3598 C.ar    1  UNL1       -0.0220
      8 C         140.9231  137.6733  164.5267 C.ar    1  UNL1       -0.0029
      9 C         141.8163  137.7548  163.3244 C.ar    1  UNL1        0.0199
     10 C         138.5403  137.6500  165.5620 C.3     1  UNL1        0.0289
     11 C         138.2558  138.8816  166.3698 C.3     1  UNL1        0.0367
     12 C         138.4702  140.2390  165.7685 C.3     1  UNL1        0.1426
     13 O         139.5564  141.1295  166.2950 O.3     1  UNL1       -0.3522
     14 C         140.7580  140.5314  166.9645 C.3     1  UNL1        0.1605
     15 C         141.4547  141.2792  168.0624 C.3     1  UNL1        0.1173
     16 C         142.7660  141.9563  167.7938 C.3     1  UNL1        0.1606
     17 O         143.4626  142.7042  168.8918 O.3     1  UNL1       -0.3508
     18 C         142.8480  142.7749  170.2582 C.3     1  UNL1        0.1595
     19 C         141.5368  142.0977  170.5268 C.3     1  UNL1        0.1047
     20 N         140.8402  141.3499  169.4289 N.3     1  UNL1       -0.2664
     21 C         139.5289  140.6728  169.6975 C.3     1  UNL1        0.0898
     22 N         143.0064  138.0573  159.5506 N.pl3   1  UNL1       -0.2152
     23 H         143.5969  137.3028  159.3240 H       1  UNL1        0.1737
     24 C         142.6217  139.1920  157.2453 C.ar    1  UNL1       -0.0074
     25 C         142.6154  140.4230  156.3883 C.ar    1  UNL1       -0.0014
     26 C         142.9874  141.7505  156.9795 C.ar    1  UNL1        0.0207
     27 C         143.3658  141.8468  158.4277 C.ar    1  UNL1        0.1036
     28 N         143.7759  143.0091  159.2827 N.ar    1  UNL1       -0.1692
     29 N         144.0357  142.4963  160.6682 N.ar    1  UNL1       -0.2473
     30 C         144.4689  143.3183  161.8458 C.3     1  UNL1        0.1538
     31 C         143.7861  141.0172  160.6695 C.ar    1  UNL1        0.0979
     32 C         143.3721  140.6158  159.2848 C.ar    1  UNL1        0.0524
     33 C         143.0001  139.2884  158.6936 C.ar    1  UNL1        0.0637
     34 C         142.2497  137.8645  156.6541 C.3     1  UNL1        0.0276
     35 C         144.4307  137.3849  155.3262 C.3     1  UNL1        0.0003
     36 C         143.3222  136.9105  156.2185 C.3     1  UNL1        0.0044
     37 C         143.2862  135.4822  156.6752 C.3     1  UNL1        0.0003
@<TRIPOS>BOND
     1    35    36    1
     2    36    37    1
     3    36    34    1
     4    34    24    1
     5    24    25   ar
     6    25    26   ar
     7    26    27   ar
     8    27    28   ar
     9    28    29   ar
    10    29    30    1
    11    29    31   ar
    12    31    32   ar
    13    32    33   ar
    14    33    22    1
    15    22     1    1
    16     1     2    2
    17     1     3    2
    18     1     4    1
    19     4     5   ar
    20     5     6   ar
    21     6     7   ar
    22     7    10    1
    23    10    11    1
    24    11    12    1
    25    12    13    1
    26    13    14    1
    27    15    14    1
    28    15    16    1
    29    16    17    1
    30    17    18    1
    31    18    19    1
    32    19    20    1
    33    20    21    1
    34     7     8   ar
    35     8     9   ar
    36    33    24   ar
    37     9     4   ar
    38    32    27   ar
    39    20    15    1
    40    22    23    1
@<TRIPOS>MOLECULE
*****
 37 40 0 0 0
SMALL
GASTEIGER

@<TRIPOS>ATOM
      1 S         143.2709  138.3835  160.1985 S.O2    1  UNL1        0.0736
      2 O         142.6404  137.5295  161.2582 O.2     1  UNL1       -0.1499
      3 O         143.9014  139.2375  159.1386 O.2     1  UNL1       -0.1499
      4 C         143.7773  139.3204  161.2548 C.ar    1  UNL1        0.1251
      5 C         143.9861  140.7706  160.9335 C.ar    1  UNL1        0.0199
      6 C         144.4926  141.7074  161.9898 C.ar    1  UNL1       -0.0029
      7 C         144.7902  141.1941  163.3674 C.ar    1  UNL1       -0.0220
      8 C         144.5814  139.7438  163.6887 C.ar    1  UNL1       -0.0029
      9 C         144.0750  138.8069  162.6324 C.ar    1  UNL1        0.0199
     10 C         145.2967  142.1309  164.4237 C.3     1  UNL1        0.0289
     11 C         144.3582  143.1008  165.0784 C.3     1  UNL1        0.0367
     12 C         143.6037  142.6988  166.3109 C.3     1  UNL1        0.1426
     13 O         142.2370  142.0926  166.1894 O.3     1  UNL1       -0.3522
     14 C         142.0674  140.6041  166.2636 C.3     1  UNL1        0.1605
     15 C         140.6973  140.0119  166.4117 C.3     1  UNL1        0.1173
     16 C         140.0535  139.9399  167.7646 C.3     1  UNL1        0.1606
     17 O         138.6833  139.3476  167.9126 O.3     1  UNL1       -0.3508
     18 C         137.9570  138.8274  166.7077 C.3     1  UNL1        0.1595
     19 C         138.6008  138.8994  165.3548 C.3     1  UNL1        0.1047
     20 N         139.9709  139.4916  165.2068 N.3     1  UNL1       -0.2664
     21 C         140.6147  139.5636  163.8539 C.3     1  UNL1        0.0898
     22 N         142.7644  137.4466  159.1422 N.pl3   1  UNL1       -0.2152
     23 H         143.0750  136.5126  159.1227 H       1  UNL1        0.1737
     24 C         142.0688  137.7370  156.6559 C.ar    1  UNL1       -0.0074
     25 C         141.0892  138.2231  155.6293 C.ar    1  UNL1       -0.0014
     26 C         139.8253  138.9052  156.0625 C.ar    1  UNL1        0.0207
     27 C         139.5412  139.1010  157.5223 C.ar    1  UNL1        0.1036
     28 N         138.3885  139.7333  158.2444 N.ar    1  UNL1       -0.1692
     29 N         138.6558  139.6378  159.7173 N.ar    1  UNL1       -0.2473
     30 C         137.7621  140.1447  160.8102 C.3     1  UNL1        0.1538
     31 C         139.9737  138.9466  159.9055 C.ar    1  UNL1        0.0979
     32 C         140.5209  138.6148  158.5488 C.ar    1  UNL1        0.0524
     33 C         141.7847  137.9328  158.1156 C.ar    1  UNL1        0.0637
     34 C         143.3327  137.0549  156.2227 C.3     1  UNL1        0.0276
     35 C         142.9491  135.1648  154.4820 C.3     1  UNL1        0.0003
     36 C         143.3154  135.5969  155.8709 C.3     1  UNL1        0.0044
     37 C         143.6643  134.5708  156.9080 C.3     1  UNL1        0.0003
@<TRIPOS>BOND
     1    35    36    1
     2    36    37    1
     3    36    34    1
     4    34    24    1
     5    24    25   ar
     6    25    26   ar
     7    26    27   ar
     8    27    28   ar
     9    28    29   ar
    10    29    30    1
    11    29    31   ar
    12    31    32   ar
    13    32    33   ar
    14    33    22    1
    15    22     1    1
    16     1     2    2
    17     1     3    2
    18     1     4    1
    19     4     5   ar
    20     5     6   ar
    21     6     7   ar
    22     7    10    1
    23    10    11    1
    24    11    12    1
    25    12    13    1
    26    13    14    1
    27    15    14    1
    28    15    16    1
    29    16    17    1
    30    17    18    1
    31    18    19    1
    32    19    20    1
    33    20    21    1
    34     7     8   ar
    35     8     9   ar
    36    33    24   ar
    37     9     4   ar
    38    32    27   ar
    39    20    15    1
    40    22    23    1
@<TRIPOS>MOLECULE
*****
 37 40 0 0 0
SMALL
GASTEIGER

@<TRIPOS>ATOM
      1 S         143.3004  138.6402  159.9224 S.O2    1  UNL1        0.0736
      2 O         142.9475  137.1823  159.9377 O.2     1  UNL1       -0.1499
      3 O         143.6532  140.0981  159.9070 O.2     1  UNL1       -0.1499
      4 C         143.2689  138.6635  161.4219 C.ar    1  UNL1        0.1251
      5 C         144.2803  139.4703  162.1808 C.ar    1  UNL1        0.0199
      6 C         144.2488  139.4937  163.6803 C.ar    1  UNL1       -0.0029
      7 C         143.2058  138.7102  164.4209 C.ar    1  UNL1       -0.0220
      8 C         142.1944  137.9034  163.6618 C.ar    1  UNL1       -0.0029
      9 C         142.2259  137.8800  162.1624 C.ar    1  UNL1        0.0199
     10 C         143.1743  138.7336  165.9203 C.3     1  UNL1        0.0289
     11 C         142.4736  139.8487  166.6384 C.3     1  UNL1        0.0367
     12 C         140.9975  139.7667  166.8922 C.3     1  UNL1        0.1426
     13 O         140.0440  139.6459  165.7405 O.3     1  UNL1       -0.3522
     14 C         138.7593  140.4201  165.7461 C.3     1  UNL1        0.1605
     15 C         138.4685  141.3986  164.6470 C.3     1  UNL1        0.1173
     16 C         137.5837  141.0005  163.5031 C.3     1  UNL1        0.1606
     17 O         137.2930  141.9792  162.4040 O.3     1  UNL1       -0.3508
     18 C         137.8871  143.3557  162.4490 C.3     1  UNL1        0.1595
     19 C         138.7720  143.7537  163.5929 C.3     1  UNL1        0.1047
     20 N         139.0627  142.7752  164.6919 N.3     1  UNL1       -0.2664
     21 C         139.9476  143.1732  165.8358 C.3     1  UNL1        0.0898
     22 N         143.3318  138.6168  158.4229 N.pl3   1  UNL1       -0.2152
     23 H         144.1563  138.8620  157.9440 H       1  UNL1        0.1737
     24 C         142.1513  137.0375  156.7311 C.ar    1  UNL1       -0.0074
     25 C         140.9267  136.6405  155.9614 C.ar    1  UNL1       -0.0014
     26 C         139.6578  137.4260  156.1135 C.ar    1  UNL1        0.0207
     27 C         139.6136  138.6083  157.0355 C.ar    1  UNL1        0.1036
     28 N         138.5142  139.5661  157.3873 N.ar    1  UNL1       -0.1692
     29 N         139.0594  140.5550  158.3746 N.ar    1  UNL1       -0.2473
     30 C         138.3014  141.6912  158.9948 C.3     1  UNL1        0.1538
     31 C         140.4958  140.2084  158.6329 C.ar    1  UNL1        0.0979
     32 C         140.8383  139.0053  157.8053 C.ar    1  UNL1        0.0524
     33 C         142.1072  138.2198  157.6531 C.ar    1  UNL1        0.0637
     34 C         143.4202  136.2521  156.5790 C.3     1  UNL1        0.0276
     35 C         143.5581  133.9894  157.8484 C.3     1  UNL1        0.0003
     36 C         143.3776  134.7527  156.5698 C.3     1  UNL1        0.0044
     37 C         143.1545  134.0165  155.2820 C.3     1  UNL1        0.0003
@<TRIPOS>BOND
     1    35    36    1
     2    36    37    1
     3    36    34    1
     4    34    24    1
     5    24    25   ar
     6    25    26   ar
     7    26    27   ar
     8    27    28   ar
     9    28    29   ar
    10    29    30    1
    11    29    31   ar
    12    31    32   ar
    13    32    33   ar
    14    33    22    1
    15    22     1    1
    16     1     2    2
    17     1     3    2
    18     1     4    1
    19     4     5   ar
    20     5     6   ar
    21     6     7   ar
    22     7    10    1
    23    10    11    1
    24    11    12    1
    25    12    13    1
    26    13    14    1
    27    15    14    1
    28    15    16    1
    29    16    17    1
    30    17    18    1
    31    18    19    1
    32    19    20    1
    33    20    21    1
    34     7     8   ar
    35     8     9   ar
    36    33    24   ar
    37     9     4   ar
    38    32    27   ar
    39    20    15    1
    40    22    23    1
@<TRIPOS>MOLECULE
*****
 37 40 0 0 0
SMALL
GASTEIGER

@<TRIPOS>ATOM
      1 S         143.2436  138.4666  160.0907 S.O2    1  UNL1        0.0736
      2 O         142.6475  137.6161  161.1730 O.2     1  UNL1       -0.1499
      3 O         143.8397  139.3172  159.0084 O.2     1  UNL1       -0.1499
      4 C         143.7899  139.4030  161.1274 C.ar    1  UNL1        0.1251
      5 C         144.0613  140.8356  160.7757 C.ar    1  UNL1        0.0199
      6 C         144.6076  141.7720  161.8124 C.ar    1  UNL1       -0.0029
      7 C         144.8825  141.2756  163.2010 C.ar    1  UNL1       -0.0220
      8 C         144.6111  139.8429  163.5527 C.ar    1  UNL1       -0.0029
      9 C         144.0648  138.9066  162.5160 C.ar    1  UNL1        0.0199
     10 C         145.4288  142.2119  164.2377 C.3     1  UNL1        0.0289
     11 C         144.5031  143.1245  164.9864 C.3     1  UNL1        0.0367
     12 C         143.5053  142.5544  165.9504 C.3     1  UNL1        0.1426
     13 O         142.1809  142.0566  165.4523 O.3     1  UNL1       -0.3522
     14 C         140.9097  142.6676  165.9630 C.3     1  UNL1        0.1605
     15 C         139.8685  143.1498  164.9970 C.3     1  UNL1        0.1173
     16 C         139.9654  144.5297  164.4167 C.3     1  UNL1        0.1606
     17 O         138.9240  145.0118  163.4507 O.3     1  UNL1       -0.3508
     18 C         137.7859  144.1142  163.0649 C.3     1  UNL1        0.1595
     19 C         137.6890  142.7343  163.6452 C.3     1  UNL1        0.1047
     20 N         138.7303  142.2522  164.6112 N.3     1  UNL1       -0.2664
     21 C         138.6334  140.8724  165.1914 C.3     1  UNL1        0.0898
     22 N         142.6973  137.5303  159.0540 N.pl3   1  UNL1       -0.2152
     23 H         142.9809  136.5876  159.0437 H       1  UNL1        0.1737
     24 C         142.0060  137.8566  156.5709 C.ar    1  UNL1       -0.0074
     25 C         141.0277  138.3565  155.5498 C.ar    1  UNL1       -0.0014
     26 C         139.7619  139.0302  155.9906 C.ar    1  UNL1        0.0207
     27 C         139.4748  139.2039  157.4526 C.ar    1  UNL1        0.1036
     28 N         138.3197  139.8236  158.1818 N.ar    1  UNL1       -0.1692
     29 N         138.5843  139.7067  159.6536 N.ar    1  UNL1       -0.2473
     30 C         137.6878  140.1959  160.7522 C.3     1  UNL1        0.1538
     31 C         139.9029  139.0147  159.8340 C.ar    1  UNL1        0.0979
     32 C         140.4532  138.7039  158.4737 C.ar    1  UNL1        0.0524
     33 C         141.7189  138.0303  158.0329 C.ar    1  UNL1        0.0637
     34 C         143.2718  137.1829  156.1301 C.3     1  UNL1        0.0276
     35 C         142.8666  135.2652  154.4248 C.3     1  UNL1        0.0003
     36 C         143.2661  135.7204  155.7971 C.3     1  UNL1        0.0044
     37 C         143.6600  134.7129  156.8363 C.3     1  UNL1        0.0003
@<TRIPOS>BOND
     1    35    36    1
     2    36    37    1
     3    36    34    1
     4    34    24    1
     5    24    25   ar
     6    25    26   ar
     7    26    27   ar
     8    27    28   ar
     9    28    29   ar
    10    29    30    1
    11    29    31   ar
    12    31    32   ar
    13    32    33   ar
    14    33    22    1
    15    22     1    1
    16     1     2    2
    17     1     3    2
    18     1     4    1
    19     4     5   ar
    20     5     6   ar
    21     6     7   ar
    22     7    10    1
    23    10    11    1
    24    11    12    1
    25    12    13    1
    26    13    14    1
    27    15    14    1
    28    15    16    1
    29    16    17    1
    30    17    18    1
    31    18    19    1
    32    19    20    1
    33    20    21    1
    34     7     8   ar
    35     8     9   ar
    36    33    24   ar
    37     9     4   ar
    38    32    27   ar
    39    20    15    1
    40    22    23    1
