@<TRIPOS>MOLECULE
*****
 29 31 0 0 0
SMALL
GASTEIGER

@<TRIPOS>ATOM
      1 C         139.3049  139.1895  164.3163 C.ar    1  UNL1        0.0873
      2 S         138.2803  139.8144  163.4165 S.2     1  UNL1       -0.0433
      3 C         138.2067  138.9975  162.1605 C.ar    1  UNL1        0.1669
      4 N         139.1858  137.8679  162.2841 N.ar    1  UNL1       -0.2276
      5 C         139.8646  137.9866  163.6165 C.ar    1  UNL1        0.0750
      6 C         140.9180  137.0643  164.1546 C.3     1  UNL1        0.0534
      7 N         137.3112  139.2636  160.9869 N.am    1  UNL1       -0.2484
      8 C         137.8394  140.0015  159.7925 C.2     1  UNL1        0.3060
      9 O         139.2631  140.4733  159.7718 O.2     1  UNL1       -0.2524
     10 N         136.9439  140.2676  158.6190 N.am    1  UNL1       -0.2862
     11 H         136.3767  138.9540  161.0006 H       1  UNL1        0.1583
     12 H         136.0094  139.9580  158.6326 H       1  UNL1        0.1511
     13 C         137.4720  141.0055  157.4247 C.3     1  UNL1        0.1203
     14 C         136.6794  141.0369  156.1516 C.3     1  UNL1        0.1348
     15 C         136.3817  142.3475  155.4855 C.3     1  UNL1        0.0339
     16 O         136.1845  139.7577  155.5445 O.3     1  UNL1       -0.3545
     17 C         134.7353  139.6084  155.1872 C.3     1  UNL1        0.1420
     18 C         133.6854  139.7116  156.2537 C.3     1  UNL1        0.0297
     19 C         133.2437  139.4805  157.6684 C.3     1  UNL1        0.0026
     20 C         132.3088  140.1213  156.6859 C.3     1  UNL1        0.0026
     21 C         140.0959  140.1731  167.0379 C.1     1  UNL1       -0.0577
     22 C         139.7004  139.6813  165.6771 C.1     1  UNL1       -0.0519
     23 C         143.4580  142.6594  170.1225 C.3     1  UNL1        0.0327
     24 C         142.1725  141.9081  169.9409 C.ar    1  UNL1       -0.0021
     25 C         141.2825  141.6486  171.1201 C.ar    1  UNL1        0.0946
     26 N         139.9969  140.8973  170.9386 N.ar    1  UNL1       -0.2420
     27 C         139.6014  140.4055  169.5779 C.ar    1  UNL1        0.1070
     28 C         140.4914  140.6650  168.3987 C.ar    1  UNL1        0.0608
     29 C         141.7769  141.4163  168.5802 C.ar    1  UNL1        0.0071
@<TRIPOS>BOND
     1    23    24    1
     2    24    25   ar
     3    25    26   ar
     4    26    27   ar
     5    27    28   ar
     6    28    21    1
     7    21    22    3
     8    22     1    1
     9     1     2   ar
    10     2     3   ar
    11     3     7    1
    12     7     8   am
    13     8     9    2
    14     8    10   am
    15    10    13    1
    16    13    14    1
    17    14    15    1
    18    14    16    1
    19    16    17    1
    20    17    18    1
    21    18    19    1
    22    19    20    1
    23     3     4   ar
    24     4     5   ar
    25     5     6    1
    26    28    29   ar
    27    29    24   ar
    28     5     1   ar
    29    20    18    1
    30     7    11    1
    31    10    12    1
@<TRIPOS>MOLECULE
*****
 29 31 0 0 0
SMALL
GASTEIGER

@<TRIPOS>ATOM
      1 C         139.8804  144.0501  164.3767 C.ar    1  UNL1        0.0873
      2 S         140.8657  144.6957  163.4479 S.2     1  UNL1       -0.0433
      3 C         140.1266  145.1290  162.2166 C.ar    1  UNL1        0.1669
      4 N         138.6846  144.7512  162.3845 N.ar    1  UNL1       -0.2276
      5 C         138.5325  144.0844  163.7194 C.ar    1  UNL1        0.0750
      6 C         137.2566  143.5463  164.2960 C.3     1  UNL1        0.0534
      7 N         140.7244  145.8190  161.0265 N.am    1  UNL1       -0.2484
      8 C         141.2352  145.0119  159.8698 C.2     1  UNL1        0.3060
      9 O         141.1481  143.5148  159.9035 O.2     1  UNL1       -0.2524
     10 N         141.8331  145.7019  158.6797 N.am    1  UNL1       -0.2862
     11 H         140.7816  146.8016  161.0044 H       1  UNL1        0.1583
     12 H         141.8903  146.6845  158.6577 H       1  UNL1        0.1511
     13 C         142.3438  144.8948  157.5232 C.3     1  UNL1        0.1203
     14 C         141.4401  144.5868  156.3664 C.3     1  UNL1        0.1348
     15 C         142.0083  144.4588  154.9840 C.3     1  UNL1        0.0339
     16 O         139.9682  144.4066  156.5918 O.3     1  UNL1       -0.3545
     17 C         138.9825  145.1537  155.7431 C.3     1  UNL1        0.1420
     18 C         139.1021  146.6409  155.5876 C.3     1  UNL1        0.0297
     19 C         138.8788  148.0248  156.1212 C.3     1  UNL1        0.0026
     20 C         139.5324  147.8326  154.7849 C.3     1  UNL1        0.0026
     21 C         140.4977  142.8934  167.0750 C.1     1  UNL1       -0.0577
     22 C         140.1891  143.4717  165.7259 C.1     1  UNL1       -0.0519
     23 C         142.3774  139.0238  169.9893 C.3     1  UNL1        0.0327
     24 C         141.7462  140.3802  169.8813 C.ar    1  UNL1       -0.0021
     25 C         141.4236  141.1582  171.1225 C.ar    1  UNL1        0.0946
     26 N         140.7923  142.5146  171.0145 N.ar    1  UNL1       -0.2420
     27 C         140.4837  143.0930  169.6654 C.ar    1  UNL1        0.1070
     28 C         140.8063  142.3150  168.4243 C.ar    1  UNL1        0.0608
     29 C         141.4376  140.9586  168.5322 C.ar    1  UNL1        0.0071
@<TRIPOS>BOND
     1    23    24    1
     2    24    25   ar
     3    25    26   ar
     4    26    27   ar
     5    27    28   ar
     6    28    21    1
     7    21    22    3
     8    22     1    1
     9     1     2   ar
    10     2     3   ar
    11     3     7    1
    12     7     8   am
    13     8     9    2
    14     8    10   am
    15    10    13    1
    16    13    14    1
    17    14    15    1
    18    14    16    1
    19    16    17    1
    20    17    18    1
    21    18    19    1
    22    19    20    1
    23     3     4   ar
    24     4     5   ar
    25     5     6    1
    26    28    29   ar
    27    29    24   ar
    28     5     1   ar
    29    20    18    1
    30     7    11    1
    31    10    12    1
@<TRIPOS>MOLECULE
*****
 29 31 0 0 0
SMALL
GASTEIGER

@<TRIPOS>ATOM
      1 C         140.0420  144.0445  164.4752 C.ar    1  UNL1        0.0873
      2 S         141.1167  144.5348  163.5508 S.2     1  UNL1       -0.0433
      3 C         140.4543  145.1113  162.3345 C.ar    1  UNL1        0.1669
      4 N         138.9703  144.9773  162.5075 N.ar    1  UNL1       -0.2276
      5 C         138.7155  144.3180  163.8305 C.ar    1  UNL1        0.0750
      6 C         137.3704  143.9897  164.4075 C.3     1  UNL1        0.0534
      7 N         141.1533  145.7157  161.1530 N.am    1  UNL1       -0.2484
      8 C         141.0817  145.0427  159.8143 C.2     1  UNL1        0.3060
      9 O         140.3112  143.7653  159.6573 O.2     1  UNL1       -0.2524
     10 N         141.7806  145.6471  158.6327 N.am    1  UNL1       -0.2862
     11 H         141.6590  146.5541  161.2560 H       1  UNL1        0.1583
     12 H         142.2863  146.4855  158.7358 H       1  UNL1        0.1511
     13 C         141.7091  144.9742  157.2941 C.3     1  UNL1        0.1203
     14 C         140.9138  145.5950  156.1841 C.3     1  UNL1        0.1348
     15 C         141.4436  145.5771  154.7809 C.3     1  UNL1        0.0339
     16 O         139.5887  146.2337  156.4773 O.3     1  UNL1       -0.3545
     17 C         138.5365  146.3020  155.4104 C.3     1  UNL1        0.1420
     18 C         137.7401  145.0792  155.0630 C.3     1  UNL1        0.0297
     19 C         137.1075  144.1900  154.0339 C.3     1  UNL1        0.0026
     20 C         136.9932  143.8507  155.4905 C.3     1  UNL1        0.0026
     21 C         140.4705  142.7450  167.1451 C.1     1  UNL1       -0.0577
     22 C         140.2562  143.3948  165.8102 C.1     1  UNL1       -0.0519
     23 C         142.4993  138.9157  170.0122 C.3     1  UNL1        0.0327
     24 C         141.6991  140.1806  169.9135 C.ar    1  UNL1       -0.0021
     25 C         141.1133  140.7958  171.1497 C.ar    1  UNL1        0.0946
     26 N         140.3132  142.0608  171.0511 N.ar    1  UNL1       -0.2420
     27 C         140.0989  142.7105  169.7162 C.ar    1  UNL1        0.1070
     28 C         140.6847  142.0953  168.4800 C.ar    1  UNL1        0.0608
     29 C         141.4848  140.8304  168.5787 C.ar    1  UNL1        0.0071
@<TRIPOS>BOND
     1    23    24    1
     2    24    25   ar
     3    25    26   ar
     4    26    27   ar
     5    27    28   ar
     6    28    21    1
     7    21    22    3
     8    22     1    1
     9     1     2   ar
    10     2     3   ar
    11     3     7    1
    12     7     8   am
    13     8     9    2
    14     8    10   am
    15    10    13    1
    16    13    14    1
    17    14    15    1
    18    14    16    1
    19    16    17    1
    20    17    18    1
    21    18    19    1
    22    19    20    1
    23     3     4   ar
    24     4     5   ar
    25     5     6    1
    26    28    29   ar
    27    29    24   ar
    28     5     1   ar
    29    20    18    1
    30     7    11    1
    31    10    12    1
@<TRIPOS>MOLECULE
*****
 29 31 0 0 0
SMALL
GASTEIGER

@<TRIPOS>ATOM
      1 C         140.5335  144.0194  163.5192 C.ar    1  UNL1        0.0873
      2 S         141.4444  144.5069  162.4317 S.2     1  UNL1       -0.0433
      3 C         140.6116  145.2453  161.4259 C.ar    1  UNL1        0.1669
      4 N         139.1861  145.2141  161.8920 N.ar    1  UNL1       -0.2276
      5 C         139.1379  144.4565  163.1857 C.ar    1  UNL1        0.0750
      6 C         137.9098  144.1838  164.0026 C.3     1  UNL1        0.0534
      7 N         141.1158  145.8999  160.1740 N.am    1  UNL1       -0.2484
      8 C         140.6177  145.4418  158.8353 C.2     1  UNL1        0.3060
      9 O         139.6155  144.3291  158.7486 O.2     1  UNL1       -0.2524
     10 N         141.1219  146.0964  157.5834 N.am    1  UNL1       -0.2862
     11 H         141.7736  146.6301  160.2310 H       1  UNL1        0.1583
     12 H         141.7797  146.8267  157.6403 H       1  UNL1        0.1511
     13 C         140.6238  145.6384  156.2448 C.3     1  UNL1        0.1203
     14 C         139.5379  146.4024  155.5470 C.3     1  UNL1        0.1348
     15 C         138.2364  145.7302  155.2242 C.3     1  UNL1        0.0339
     16 O         139.7534  147.8386  155.1720 O.3     1  UNL1       -0.3545
     17 C         138.7805  148.8863  155.6255 C.3     1  UNL1        0.1420
     18 C         139.0002  150.3237  155.2570 C.3     1  UNL1        0.0297
     19 C         139.8682  151.3955  154.6671 C.3     1  UNL1        0.0026
     20 C         138.5128  151.7414  155.2085 C.3     1  UNL1        0.0026
     21 C         141.3585  142.4465  165.9370 C.1     1  UNL1       -0.0577
     22 C         140.9460  143.2330  164.7281 C.1     1  UNL1       -0.0519
     23 C         141.6210  141.9403  171.1018 C.3     1  UNL1        0.0327
     24 C         141.9022  141.4069  169.7283 C.ar    1  UNL1       -0.0021
     25 C         142.5958  140.0872  169.5636 C.ar    1  UNL1        0.0946
     26 N         142.8770  139.5539  168.1901 N.ar    1  UNL1       -0.2420
     27 C         142.4646  140.3403  166.9813 C.ar    1  UNL1        0.1070
     28 C         141.7710  141.6600  167.1459 C.ar    1  UNL1        0.0608
     29 C         141.4898  142.1934  168.5194 C.ar    1  UNL1        0.0071
@<TRIPOS>BOND
     1    23    24    1
     2    24    25   ar
     3    25    26   ar
     4    26    27   ar
     5    27    28   ar
     6    28    21    1
     7    21    22    3
     8    22     1    1
     9     1     2   ar
    10     2     3   ar
    11     3     7    1
    12     7     8   am
    13     8     9    2
    14     8    10   am
    15    10    13    1
    16    13    14    1
    17    14    15    1
    18    14    16    1
    19    16    17    1
    20    17    18    1
    21    18    19    1
    22    19    20    1
    23     3     4   ar
    24     4     5   ar
    25     5     6    1
    26    28    29   ar
    27    29    24   ar
    28     5     1   ar
    29    20    18    1
    30     7    11    1
    31    10    12    1
@<TRIPOS>MOLECULE
*****
 29 31 0 0 0
SMALL
GASTEIGER

@<TRIPOS>ATOM
      1 C         139.2641  139.2071  164.4473 C.ar    1  UNL1        0.0873
      2 S         138.2697  139.8297  163.5126 S.2     1  UNL1       -0.0433
      3 C         138.2334  139.0064  162.2591 C.ar    1  UNL1        0.1669
      4 N         139.2053  137.8751  162.4193 N.ar    1  UNL1       -0.2276
      5 C         139.8423  137.9992  163.7716 C.ar    1  UNL1        0.0750
      6 C         140.8760  137.0772  164.3473 C.3     1  UNL1        0.0534
      7 N         137.3757  139.2684  161.0568 N.am    1  UNL1       -0.2484
      8 C         137.9604  139.9424  159.8509 C.2     1  UNL1        0.3060
      9 O         139.4027  140.3542  159.8476 O.2     1  UNL1       -0.2524
     10 N         137.1027  140.2044  158.6485 N.am    1  UNL1       -0.2862
     11 H         136.4290  138.9981  161.0590 H       1  UNL1        0.1583
     12 H         136.1561  139.9341  158.6508 H       1  UNL1        0.1511
     13 C         137.6874  140.8783  157.4428 C.3     1  UNL1        0.1203
     14 C         137.7454  142.3756  157.3748 C.3     1  UNL1        0.1348
     15 C         137.3129  143.0870  156.1270 C.3     1  UNL1        0.0339
     16 O         138.2358  143.1615  158.5544 O.3     1  UNL1       -0.3545
     17 C         139.6466  143.6703  158.5826 C.3     1  UNL1        0.1420
     18 C         140.2183  144.2260  159.8532 C.3     1  UNL1        0.0297
     19 C         140.9369  144.0199  161.1536 C.3     1  UNL1        0.0026
     20 C         140.4899  145.3946  160.7534 C.3     1  UNL1        0.0026
     21 C         139.9721  140.2032  167.1871 C.1     1  UNL1       -0.0577
     22 C         139.6181  139.7052  165.8172 C.1     1  UNL1       -0.0519
     23 C         143.0809  142.9572  170.3098 C.3     1  UNL1        0.0327
     24 C         141.8805  142.0783  170.1184 C.ar    1  UNL1       -0.0021
     25 C         141.0342  141.6974  171.2967 C.ar    1  UNL1        0.0946
     26 N         139.8339  140.8185  171.1053 N.ar    1  UNL1       -0.2420
     27 C         139.4799  140.3204  169.7354 C.ar    1  UNL1        0.1070
     28 C         140.3262  140.7013  168.5571 C.ar    1  UNL1        0.0608
     29 C         141.5265  141.5802  168.7485 C.ar    1  UNL1        0.0071
@<TRIPOS>BOND
     1    23    24    1
     2    24    25   ar
     3    25    26   ar
     4    26    27   ar
     5    27    28   ar
     6    28    21    1
     7    21    22    3
     8    22     1    1
     9     1     2   ar
    10     2     3   ar
    11     3     7    1
    12     7     8   am
    13     8     9    2
    14     8    10   am
    15    10    13    1
    16    13    14    1
    17    14    15    1
    18    14    16    1
    19    16    17    1
    20    17    18    1
    21    18    19    1
    22    19    20    1
    23     3     4   ar
    24     4     5   ar
    25     5     6    1
    26    28    29   ar
    27    29    24   ar
    28     5     1   ar
    29    20    18    1
    30     7    11    1
    31    10    12    1
@<TRIPOS>MOLECULE
*****
 29 31 0 0 0
SMALL
GASTEIGER

@<TRIPOS>ATOM
      1 C         141.4429  138.5785  164.3659 C.ar    1  UNL1        0.0873
      2 S         142.5455  138.5368  163.3497 S.2     1  UNL1       -0.0433
      3 C         142.0630  137.7387  162.1748 C.ar    1  UNL1        0.1669
      4 N         140.6622  137.2872  162.4649 N.ar    1  UNL1       -0.2276
      5 C         140.2791  137.8062  163.8191 C.ar    1  UNL1        0.0750
      6 C         138.9631  137.5908  164.5059 C.3     1  UNL1        0.0534
      7 N         142.8441  137.4439  160.9286 N.am    1  UNL1       -0.2484
      8 C         142.3547  137.9425  159.6012 C.2     1  UNL1        0.3060
      9 O         141.0843  138.7358  159.5201 O.2     1  UNL1       -0.2524
     10 N         143.1358  137.6476  158.3550 N.am    1  UNL1       -0.2862
     11 H         143.6779  136.9232  160.9819 H       1  UNL1        0.1583
     12 H         143.9696  137.1269  158.4083 H       1  UNL1        0.1511
     13 C         142.6465  138.1462  157.0276 C.3     1  UNL1        0.1203
     14 C         141.4572  137.5039  156.3773 C.3     1  UNL1        0.1348
     15 C         140.3531  138.3559  155.8251 C.3     1  UNL1        0.0339
     16 O         141.3720  136.0096  156.2791 O.3     1  UNL1       -0.3545
     17 C         142.5108  135.2304  155.6908 C.3     1  UNL1        0.1420
     18 C         142.3230  133.7876  155.3258 C.3     1  UNL1        0.0297
     19 C         142.8944  132.4786  154.8677 C.3     1  UNL1        0.0026
     20 C         141.4265  132.5977  155.1519 C.3     1  UNL1        0.0026
     21 C         141.5473  139.9634  167.0250 C.1     1  UNL1       -0.0577
     22 C         141.4951  139.2710  165.6955 C.1     1  UNL1       -0.0519
     23 C         140.4478  144.0778  170.0021 C.3     1  UNL1        0.0327
     24 C         141.0497  142.7131  169.8432 C.ar    1  UNL1       -0.0021
     25 C         141.7039  142.0409  171.0137 C.ar    1  UNL1        0.0946
     26 N         142.3058  140.6762  170.8547 N.ar    1  UNL1       -0.2420
     27 C         142.2537  139.9837  169.5252 C.ar    1  UNL1        0.1070
     28 C         141.5995  140.6559  168.3546 C.ar    1  UNL1        0.0608
     29 C         140.9976  142.0206  168.5136 C.ar    1  UNL1        0.0071
@<TRIPOS>BOND
     1    23    24    1
     2    24    25   ar
     3    25    26   ar
     4    26    27   ar
     5    27    28   ar
     6    28    21    1
     7    21    22    3
     8    22     1    1
     9     1     2   ar
    10     2     3   ar
    11     3     7    1
    12     7     8   am
    13     8     9    2
    14     8    10   am
    15    10    13    1
    16    13    14    1
    17    14    15    1
    18    14    16    1
    19    16    17    1
    20    17    18    1
    21    18    19    1
    22    19    20    1
    23     3     4   ar
    24     4     5   ar
    25     5     6    1
    26    28    29   ar
    27    29    24   ar
    28     5     1   ar
    29    20    18    1
    30     7    11    1
    31    10    12    1
@<TRIPOS>MOLECULE
*****
 29 31 0 0 0
SMALL
GASTEIGER

@<TRIPOS>ATOM
      1 C         141.4713  138.4630  164.2165 C.ar    1  UNL1        0.0873
      2 S         142.5372  138.3896  163.1637 S.2     1  UNL1       -0.0433
      3 C         141.9630  137.6836  161.9712 C.ar    1  UNL1        0.1669
      4 N         140.5421  137.3208  162.2871 N.ar    1  UNL1       -0.2276
      5 C         140.2383  137.8025  163.6748 C.ar    1  UNL1        0.0750
      6 C         138.9311  137.6504  164.3945 C.3     1  UNL1        0.0534
      7 N         142.6830  137.3917  160.6881 N.am    1  UNL1       -0.2484
      8 C         142.4023  138.2155  159.4664 C.2     1  UNL1        0.3060
      9 O         141.4015  139.3311  159.5278 O.2     1  UNL1       -0.2524
     10 N         143.1224  137.9236  158.1833 N.am    1  UNL1       -0.2862
     11 H         143.3399  136.6595  160.6479 H       1  UNL1        0.1583
     12 H         143.7792  137.1914  158.1431 H       1  UNL1        0.1511
     13 C         142.8417  138.7473  156.9616 C.3     1  UNL1        0.1203
     14 C         143.7144  139.9220  156.6323 C.3     1  UNL1        0.1348
     15 C         143.1231  141.2987  156.5599 C.3     1  UNL1        0.0339
     16 O         145.1783  139.7201  156.3754 O.3     1  UNL1       -0.3545
     17 C         145.8764  140.5394  155.3308 C.3     1  UNL1        0.1420
     18 C         146.9504  141.5074  155.7307 C.3     1  UNL1        0.0297
     19 C         147.4201  142.6453  156.5878 C.3     1  UNL1        0.0026
     20 C         148.3405  142.0460  155.5663 C.3     1  UNL1        0.0026
     21 C         141.7557  139.7118  166.9294 C.1     1  UNL1       -0.0577
     22 C         141.6135  139.0874  165.5730 C.1     1  UNL1       -0.0519
     23 C         144.3499  142.7861  170.2185 C.3     1  UNL1        0.0327
     24 C         143.1950  141.8733  169.9304 C.ar    1  UNL1       -0.0021
     25 C         142.1823  141.5849  170.9987 C.ar    1  UNL1        0.0946
     26 N         141.0274  140.6722  170.7106 N.ar    1  UNL1       -0.2420
     27 C         140.8852  140.0478  169.3542 C.ar    1  UNL1        0.1070
     28 C         141.8979  140.3362  168.2859 C.ar    1  UNL1        0.0608
     29 C         143.0528  141.2489  168.5740 C.ar    1  UNL1        0.0071
@<TRIPOS>BOND
     1    23    24    1
     2    24    25   ar
     3    25    26   ar
     4    26    27   ar
     5    27    28   ar
     6    28    21    1
     7    21    22    3
     8    22     1    1
     9     1     2   ar
    10     2     3   ar
    11     3     7    1
    12     7     8   am
    13     8     9    2
    14     8    10   am
    15    10    13    1
    16    13    14    1
    17    14    15    1
    18    14    16    1
    19    16    17    1
    20    17    18    1
    21    18    19    1
    22    19    20    1
    23     3     4   ar
    24     4     5   ar
    25     5     6    1
    26    28    29   ar
    27    29    24   ar
    28     5     1   ar
    29    20    18    1
    30     7    11    1
    31    10    12    1
@<TRIPOS>MOLECULE
*****
 29 31 0 0 0
SMALL
GASTEIGER

@<TRIPOS>ATOM
      1 C         140.5212  143.9562  163.9826 C.ar    1  UNL1        0.0873
      2 S         141.6703  144.2665  163.0697 S.2     1  UNL1       -0.0433
      3 C         141.1086  144.7550  161.7673 C.ar    1  UNL1        0.1669
      4 N         139.6125  144.7466  161.8754 N.ar    1  UNL1       -0.2276
      5 C         139.2495  144.2528  163.2446 C.ar    1  UNL1        0.0750
      6 C         137.8590  144.0852  163.7814 C.3     1  UNL1        0.0534
      7 N         141.9035  145.1778  160.5676 N.am    1  UNL1       -0.2484
      8 C         141.8139  144.3913  159.2934 C.2     1  UNL1        0.3060
      9 O         140.9293  143.1822  159.2191 O.2     1  UNL1       -0.2524
     10 N         142.6088  144.8141  158.0936 N.am    1  UNL1       -0.2862
     11 H         142.4841  145.9714  160.6164 H       1  UNL1        0.1583
     12 H         143.1893  145.6077  158.1425 H       1  UNL1        0.1511
     13 C         142.5192  144.0277  156.8195 C.3     1  UNL1        0.1203
     14 C         143.3601  142.7993  156.6356 C.3     1  UNL1        0.1348
     15 C         142.8616  141.6697  155.7838 C.3     1  UNL1        0.0339
     16 O         144.6995  142.7004  157.3034 O.3     1  UNL1       -0.3545
     17 C         145.6498  141.6050  156.9199 C.3     1  UNL1        0.1420
     18 C         146.8106  141.9010  156.0171 C.3     1  UNL1        0.0297
     19 C         148.2893  142.0363  155.8044 C.3     1  UNL1        0.0026
     20 C         147.3425  142.2783  154.6664 C.3     1  UNL1        0.0026
     21 C         140.7301  142.9234  166.7915 C.1     1  UNL1       -0.0577
     22 C         140.6256  143.4398  165.3871 C.1     1  UNL1       -0.0519
     23 C         142.0584  139.1549  170.1133 C.3     1  UNL1        0.0327
     24 C         141.4987  140.5227  169.8568 C.ar    1  UNL1       -0.0021
     25 C         141.0434  141.3742  171.0047 C.ar    1  UNL1        0.0946
     26 N         140.4837  142.7420  170.7483 N.ar    1  UNL1       -0.2420
     27 C         140.3793  143.2584  169.3439 C.ar    1  UNL1        0.1070
     28 C         140.8345  142.4070  168.1960 C.ar    1  UNL1        0.0608
     29 C         141.3942  141.0391  168.4524 C.ar    1  UNL1        0.0071
@<TRIPOS>BOND
     1    23    24    1
     2    24    25   ar
     3    25    26   ar
     4    26    27   ar
     5    27    28   ar
     6    28    21    1
     7    21    22    3
     8    22     1    1
     9     1     2   ar
    10     2     3   ar
    11     3     7    1
    12     7     8   am
    13     8     9    2
    14     8    10   am
    15    10    13    1
    16    13    14    1
    17    14    15    1
    18    14    16    1
    19    16    17    1
    20    17    18    1
    21    18    19    1
    22    19    20    1
    23     3     4   ar
    24     4     5   ar
    25     5     6    1
    26    28    29   ar
    27    29    24   ar
    28     5     1   ar
    29    20    18    1
    30     7    11    1
    31    10    12    1
@<TRIPOS>MOLECULE
*****
 29 31 0 0 0
SMALL
GASTEIGER

@<TRIPOS>ATOM
      1 C         142.3964  143.4456  163.7752 C.ar    1  UNL1        0.0873
      2 S         141.4474  144.3117  163.0010 S.2     1  UNL1       -0.0433
      3 C         142.1015  144.6668  161.6986 C.ar    1  UNL1        0.1669
      4 N         143.4546  144.0201  161.6680 N.ar    1  UNL1       -0.2276
      5 C         143.6369  143.2654  162.9514 C.ar    1  UNL1        0.0750
      6 C         144.8471  142.4702  163.3424 C.3     1  UNL1        0.0534
      7 N         141.5068  145.5189  160.6168 N.am    1  UNL1       -0.2484
      8 C         141.1377  144.9072  159.2979 C.2     1  UNL1        0.3060
      9 O         141.3634  143.4433  159.0608 O.2     1  UNL1       -0.2524
     10 N         140.5431  145.7593  158.2161 N.am    1  UNL1       -0.2862
     11 H         141.3587  146.4797  160.7725 H       1  UNL1        0.1583
     12 H         140.3950  146.7200  158.3718 H       1  UNL1        0.1511
     13 C         140.1740  145.1476  156.8972 C.3     1  UNL1        0.1203
     14 C         139.8209  146.0275  155.7350 C.3     1  UNL1        0.1348
     15 C         140.6621  146.0035  154.4933 C.3     1  UNL1        0.0339
     16 O         138.6266  146.9315  155.8143 O.3     1  UNL1       -0.3545
     17 C         138.7318  148.2534  156.5154 C.3     1  UNL1        0.1420
     18 C         138.8175  149.5209  155.7176 C.3     1  UNL1        0.0297
     19 C         139.3226  150.2708  154.5208 C.3     1  UNL1        0.0026
     20 C         138.4607  150.9659  155.5326 C.3     1  UNL1        0.0026
     21 C         141.9003  142.2786  166.4941 C.1     1  UNL1       -0.0577
     22 C         142.1484  142.8621  165.1347 C.1     1  UNL1       -0.0519
     23 C         138.6327  140.2808  170.0057 C.3     1  UNL1        0.0327
     24 C         140.0184  140.6962  169.6093 C.ar    1  UNL1       -0.0021
     25 C         141.1561  140.5282  170.5723 C.ar    1  UNL1        0.0946
     26 N         142.5418  140.9436  170.1759 N.ar    1  UNL1       -0.2420
     27 C         142.7899  141.5271  168.8166 C.ar    1  UNL1        0.1070
     28 C         141.6523  141.6951  167.8536 C.ar    1  UNL1        0.0608
     29 C         140.2665  141.2797  168.2499 C.ar    1  UNL1        0.0071
@<TRIPOS>BOND
     1    23    24    1
     2    24    25   ar
     3    25    26   ar
     4    26    27   ar
     5    27    28   ar
     6    28    21    1
     7    21    22    3
     8    22     1    1
     9     1     2   ar
    10     2     3   ar
    11     3     7    1
    12     7     8   am
    13     8     9    2
    14     8    10   am
    15    10    13    1
    16    13    14    1
    17    14    15    1
    18    14    16    1
    19    16    17    1
    20    17    18    1
    21    18    19    1
    22    19    20    1
    23     3     4   ar
    24     4     5   ar
    25     5     6    1
    26    28    29   ar
    27    29    24   ar
    28     5     1   ar
    29    20    18    1
    30     7    11    1
    31    10    12    1
