@<TRIPOS>MOLECULE
*****
 35 39 0 0 0
SMALL
GASTEIGER

@<TRIPOS>ATOM
      1 C         143.2247  143.5365  162.8552 C.2     1  UNL1        0.1157
      2 N         143.4220  143.6563  161.3731 N.2     1  UNL1       -0.1790
      3 N         142.0691  143.7359  160.7304 N.pl3   1  UNL1       -0.2060
      4 C         141.6446  143.8635  159.2973 C.ar    1  UNL1        0.1052
      5 C         142.6781  143.9341  158.2125 C.ar    1  UNL1        0.0490
      6 C         142.2536  144.0618  156.7795 C.ar    1  UNL1        0.1416
      7 F         143.2871  144.1324  155.6945 F       1  UNL1       -0.2041
      8 C         140.7957  144.1188  156.4313 C.ar    1  UNL1        0.0328
      9 C         139.7622  144.0482  157.5162 C.ar    1  UNL1        0.0405
     10 C         140.1867  143.9205  158.9491 C.ar    1  UNL1        0.1537
     11 O         139.1532  143.8499  160.0341 O.3     1  UNL1       -0.4723
     12 C         139.5777  143.7223  161.4671 C.3     1  UNL1        0.2277
     13 C         141.0356  143.6652  161.8152 C.3     1  UNL1        0.1488
     14 C         141.7499  143.5420  163.1285 C.3     1  UNL1        0.0806
     15 C         140.3637  143.5209  163.7013 C.ar    1  UNL1       -0.0157
     16 C         139.5418  142.2681  163.6301 C.ar    1  UNL1       -0.0039
     17 C         138.1556  142.2469  164.2029 C.ar    1  UNL1       -0.0003
     18 C         137.5914  143.4785  164.8470 C.ar    1  UNL1       -0.0000
     19 C         138.4132  144.7313  164.9182 C.ar    1  UNL1       -0.0003
     20 C         139.7995  144.7525  164.3454 C.ar    1  UNL1       -0.0039
     21 C         145.2211  142.2371  163.8927 C.3     1  UNL1        0.0786
     22 C         144.3116  143.4298  163.8836 C.2     1  UNL1        0.1887
     23 O         144.4888  144.5160  164.9029 O.2     1  UNL1       -0.2900
     24 C         142.1743  143.4144  164.5615 C.3     1  UNL1        0.0130
     25 C         141.8236  142.1815  165.3406 C.3     1  UNL1        0.0181
     26 C         142.2742  142.0406  166.7644 C.3     1  UNL1        0.0722
     27 N         141.2714  141.7605  167.8442 N.3     1  UNL1       -0.2708
     28 C         141.1807  142.7902  168.9311 C.3     1  UNL1        0.0936
     29 C         140.2881  142.8015  170.1366 C.3     1  UNL1        0.1067
     30 N         139.2658  141.7858  170.5529 N.am    1  UNL1       -0.3029
     31 C         138.8835  140.5081  169.8665 C.2     1  UNL1        0.2239
     32 O         137.8142  139.7013  170.5415 O.2     1  UNL1       -0.2751
     33 C         139.4292  139.9303  168.5943 C.3     1  UNL1        0.1023
     34 C         140.4919  140.4878  167.6943 C.3     1  UNL1        0.0818
     35 H         138.7816  141.9840  171.3869 H       1  UNL1        0.1495
@<TRIPOS>BOND
     1    21    22    1
     2    22    23    2
     3    22     1    1
     4     1     2    2
     5     2     3    1
     6     3     4    1
     7     4     5   ar
     8     5     6   ar
     9     6     7    1
    10     6     8   ar
    11     8     9   ar
    12     9    10   ar
    13    10    11    1
    14    11    12    1
    15    13    12    1
    16    13    14    1
    17    14    24    1
    18    24    25    1
    19    25    26    1
    20    26    27    1
    21    27    28    1
    22    28    29    1
    23    29    30    1
    24    30    31   am
    25    31    32    2
    26    31    33    1
    27    33    34    1
    28    14    15    1
    29    15    16   ar
    30    16    17   ar
    31    17    18   ar
    32    18    19   ar
    33    19    20   ar
    34    14     1    1
    35    34    27    1
    36    20    15   ar
    37    13     3    1
    38    10     4   ar
    39    30    35    1
@<TRIPOS>MOLECULE
*****
 35 39 0 0 0
SMALL
GASTEIGER

@<TRIPOS>ATOM
      1 C         143.2403  142.1746  161.9843 C.2     1  UNL1        0.1157
      2 N         143.3721  142.6880  160.5810 N.2     1  UNL1       -0.1790
      3 N         142.1782  143.5474  160.2879 N.pl3   1  UNL1       -0.2060
      4 C         141.7706  144.3161  159.0659 C.ar    1  UNL1        0.1052
      5 C         142.6403  144.2983  157.8439 C.ar    1  UNL1        0.0490
      6 C         142.2327  145.0670  156.6221 C.ar    1  UNL1        0.1416
      7 F         143.1023  145.0492  155.4000 F       1  UNL1       -0.2041
      8 C         140.9554  145.8535  156.6223 C.ar    1  UNL1        0.0328
      9 C         140.0857  145.8713  157.8443 C.ar    1  UNL1        0.0405
     10 C         140.4933  145.1026  159.0661 C.ar    1  UNL1        0.1537
     11 O         139.6237  145.1204  160.2882 O.3     1  UNL1       -0.4723
     12 C         140.0313  144.3517  161.5100 C.3     1  UNL1        0.2277
     13 C         141.3085  143.5652  161.5099 C.3     1  UNL1        0.1488
     14 C         141.9650  142.7168  162.5583 C.3     1  UNL1        0.0806
     15 C         140.7748  143.0982  163.3878 C.ar    1  UNL1       -0.0157
     16 C         140.7199  144.4450  164.0458 C.ar    1  UNL1       -0.0039
     17 C         139.5298  144.8265  164.8754 C.ar    1  UNL1       -0.0003
     18 C         138.3946  143.8612  165.0469 C.ar    1  UNL1       -0.0000
     19 C         138.4495  142.5143  164.3889 C.ar    1  UNL1       -0.0003
     20 C         139.6396  142.1328  163.5593 C.ar    1  UNL1       -0.0039
     21 C         145.5322  141.8183  163.1549 C.3     1  UNL1        0.0786
     22 C         144.2131  141.2767  162.6896 C.2     1  UNL1        0.1887
     23 O         143.8667  139.8371  162.9297 O.2     1  UNL1       -0.2900
     24 C         142.3726  141.9480  163.7802 C.3     1  UNL1        0.0130
     25 C         142.7070  142.6768  165.0479 C.3     1  UNL1        0.0181
     26 C         143.0993  141.9073  166.2742 C.3     1  UNL1        0.0722
     27 N         142.4857  142.2461  167.6004 N.3     1  UNL1       -0.2708
     28 C         143.4387  142.3318  168.7555 C.3     1  UNL1        0.0936
     29 C         143.1415  142.6470  170.1917 C.3     1  UNL1        0.1067
     30 N         141.8180  142.9541  170.8273 N.am    1  UNL1       -0.3029
     31 C         140.4648  143.0221  170.1838 C.2     1  UNL1        0.2239
     32 O         139.3248  143.3567  171.0995 O.2     1  UNL1       -0.2751
     33 C         140.1008  142.7996  168.7458 C.3     1  UNL1        0.1023
     34 C         141.0002  142.4542  167.5960 C.3     1  UNL1        0.0818
     35 H         141.8405  143.1351  171.7948 H       1  UNL1        0.1495
@<TRIPOS>BOND
     1    21    22    1
     2    22    23    2
     3    22     1    1
     4     1     2    2
     5     2     3    1
     6     3     4    1
     7     4     5   ar
     8     5     6   ar
     9     6     7    1
    10     6     8   ar
    11     8     9   ar
    12     9    10   ar
    13    10    11    1
    14    11    12    1
    15    13    12    1
    16    13    14    1
    17    14    24    1
    18    24    25    1
    19    25    26    1
    20    26    27    1
    21    27    28    1
    22    28    29    1
    23    29    30    1
    24    30    31   am
    25    31    32    2
    26    31    33    1
    27    33    34    1
    28    14    15    1
    29    15    16   ar
    30    16    17   ar
    31    17    18   ar
    32    18    19   ar
    33    19    20   ar
    34    14     1    1
    35    34    27    1
    36    20    15   ar
    37    13     3    1
    38    10     4   ar
    39    30    35    1
@<TRIPOS>MOLECULE
*****
 35 39 0 0 0
SMALL
GASTEIGER

@<TRIPOS>ATOM
      1 C         140.5644  138.8550  164.1599 C.2     1  UNL1        0.1157
      2 N         139.8061  138.9599  165.4499 N.2     1  UNL1       -0.1790
      3 N         140.5387  139.9180  166.3416 N.pl3   1  UNL1       -0.2060
      4 C         140.2594  140.4097  167.7310 C.ar    1  UNL1        0.1052
      5 C         139.0483  139.9225  168.4697 C.ar    1  UNL1        0.0490
      6 C         138.7691  140.4142  169.8590 C.ar    1  UNL1        0.1416
      7 F         137.5579  139.9270  170.5978 F       1  UNL1       -0.2041
      8 C         139.7010  141.3931  170.5096 C.ar    1  UNL1        0.0328
      9 C         140.9121  141.8804  169.7708 C.ar    1  UNL1        0.0405
     10 C         141.1913  141.3886  168.3816 C.ar    1  UNL1        0.1537
     11 O         142.4025  141.8759  167.6427 O.3     1  UNL1       -0.4723
     12 C         142.6817  141.3841  166.2535 C.3     1  UNL1        0.2277
     13 C         141.7498  140.4052  165.6029 C.3     1  UNL1        0.1488
     14 C         141.7657  139.7482  164.2545 C.3     1  UNL1        0.0806
     15 C         143.0254  140.5387  164.0586 C.ar    1  UNL1       -0.0157
     16 C         144.3590  139.8570  164.1413 C.ar    1  UNL1       -0.0039
     17 C         145.6188  140.6475  163.9454 C.ar    1  UNL1       -0.0003
     18 C         145.5449  142.1195  163.6668 C.ar    1  UNL1       -0.0000
     19 C         144.2113  142.8012  163.5842 C.ar    1  UNL1       -0.0003
     20 C         142.9515  142.0107  163.7801 C.ar    1  UNL1       -0.0039
     21 C         138.8829  138.2357  162.2786 C.3     1  UNL1        0.0786
     22 C         140.1876  138.0058  162.9822 C.2     1  UNL1        0.1887
     23 O         141.1154  136.9269  162.5080 O.2     1  UNL1       -0.2900
     24 C         142.0450  139.2565  162.8651 C.3     1  UNL1        0.0130
     25 C         142.2175  140.2369  161.7431 C.3     1  UNL1        0.0181
     26 C         141.0205  140.7221  160.9805 C.3     1  UNL1        0.0722
     27 N         140.4206  142.0598  161.2980 N.3     1  UNL1       -0.2708
     28 C         139.0651  142.0294  161.9396 C.3     1  UNL1        0.0936
     29 C         138.2098  143.1828  162.3736 C.3     1  UNL1        0.1067
     30 N         138.4987  144.6513  162.2731 N.am    1  UNL1       -0.3029
     31 C         139.7143  145.3291  161.7139 C.2     1  UNL1        0.2239
     32 O         139.7013  146.8285  161.7573 O.2     1  UNL1       -0.2751
     33 C         140.9412  144.7060  161.1170 C.3     1  UNL1        0.1023
     34 C         141.2555  143.2509  160.9319 C.3     1  UNL1        0.0818
     35 H         137.7979  145.2493  162.6202 H       1  UNL1        0.1495
@<TRIPOS>BOND
     1    21    22    1
     2    22    23    2
     3    22     1    1
     4     1     2    2
     5     2     3    1
     6     3     4    1
     7     4     5   ar
     8     5     6   ar
     9     6     7    1
    10     6     8   ar
    11     8     9   ar
    12     9    10   ar
    13    10    11    1
    14    11    12    1
    15    13    12    1
    16    13    14    1
    17    14    24    1
    18    24    25    1
    19    25    26    1
    20    26    27    1
    21    27    28    1
    22    28    29    1
    23    29    30    1
    24    30    31   am
    25    31    32    2
    26    31    33    1
    27    33    34    1
    28    14    15    1
    29    15    16   ar
    30    16    17   ar
    31    17    18   ar
    32    18    19   ar
    33    19    20   ar
    34    14     1    1
    35    34    27    1
    36    20    15   ar
    37    13     3    1
    38    10     4   ar
    39    30    35    1
@<TRIPOS>MOLECULE
*****
 35 39 0 0 0
SMALL
GASTEIGER

@<TRIPOS>ATOM
      1 C         143.6678  139.6874  163.0250 C.2     1  UNL1        0.1157
      2 N         143.7750  139.3878  161.5592 N.2     1  UNL1       -0.1790
      3 N         142.3938  139.1218  161.0382 N.pl3   1  UNL1       -0.2060
      4 C         141.8869  138.7739  159.6699 C.ar    1  UNL1        0.1052
      5 C         142.8478  138.6387  158.5261 C.ar    1  UNL1        0.0490
      6 C         142.3409  138.2909  157.1579 C.ar    1  UNL1        0.1416
      7 F         143.3018  138.1557  156.0140 F       1  UNL1       -0.2041
      8 C         140.8731  138.0782  156.9336 C.ar    1  UNL1        0.0328
      9 C         139.9122  138.2135  158.0774 C.ar    1  UNL1        0.0405
     10 C         140.4191  138.5613  159.4456 C.ar    1  UNL1        0.1537
     11 O         139.4582  138.6965  160.5895 O.3     1  UNL1       -0.4723
     12 C         139.9651  139.0444  161.9577 C.3     1  UNL1        0.2277
     13 C         141.4329  139.2570  162.1821 C.3     1  UNL1        0.1488
     14 C         142.2203  139.6066  163.4100 C.3     1  UNL1        0.0806
     15 C         140.8788  139.5985  164.0810 C.ar    1  UNL1       -0.0157
     16 C         140.0004  140.8126  164.0160 C.ar    1  UNL1       -0.0039
     17 C         138.6588  140.8046  164.6870 C.ar    1  UNL1       -0.0003
     18 C         138.1957  139.5824  165.4230 C.ar    1  UNL1       -0.0000
     19 C         139.0740  138.3682  165.4880 C.ar    1  UNL1       -0.0003
     20 C         140.4156  138.3762  164.8170 C.ar    1  UNL1       -0.0039
     21 C         145.5291  141.3197  163.8133 C.3     1  UNL1        0.0786
     22 C         144.8079  140.0110  163.9445 C.2     1  UNL1        0.1887
     23 O         145.2269  139.0259  164.9953 O.2     1  UNL1       -0.2900
     24 C         142.7272  139.9544  164.7783 C.3     1  UNL1        0.0130
     25 C         142.3511  141.2633  165.4071 C.3     1  UNL1        0.0181
     26 C         142.8804  141.6231  166.7637 C.3     1  UNL1        0.0722
     27 N         142.1780  141.1357  167.9962 N.3     1  UNL1       -0.2708
     28 C         143.0111  141.0837  169.2424 C.3     1  UNL1        0.0936
     29 C         142.6074  140.6479  170.6198 C.3     1  UNL1        0.1067
     30 N         141.2708  140.1566  171.0911 N.am    1  UNL1       -0.3029
     31 C         140.0078  139.9797  170.3014 C.2     1  UNL1        0.2239
     32 O         138.8270  139.4638  171.0693 O.2     1  UNL1       -0.2751
     33 C         139.7695  140.2504  168.8455 C.3     1  UNL1        0.1023
     34 C         140.7353  140.7649  167.8195 C.3     1  UNL1        0.0818
     35 H         141.2151  139.9187  172.0448 H       1  UNL1        0.1495
@<TRIPOS>BOND
     1    21    22    1
     2    22    23    2
     3    22     1    1
     4     1     2    2
     5     2     3    1
     6     3     4    1
     7     4     5   ar
     8     5     6   ar
     9     6     7    1
    10     6     8   ar
    11     8     9   ar
    12     9    10   ar
    13    10    11    1
    14    11    12    1
    15    13    12    1
    16    13    14    1
    17    14    24    1
    18    24    25    1
    19    25    26    1
    20    26    27    1
    21    27    28    1
    22    28    29    1
    23    29    30    1
    24    30    31   am
    25    31    32    2
    26    31    33    1
    27    33    34    1
    28    14    15    1
    29    15    16   ar
    30    16    17   ar
    31    17    18   ar
    32    18    19   ar
    33    19    20   ar
    34    14     1    1
    35    34    27    1
    36    20    15   ar
    37    13     3    1
    38    10     4   ar
    39    30    35    1
@<TRIPOS>MOLECULE
*****
 35 39 0 0 0
SMALL
GASTEIGER

@<TRIPOS>ATOM
      1 C         139.4656  143.6973  163.4474 C.2     1  UNL1        0.1157
      2 N         139.4241  144.3988  162.1222 N.2     1  UNL1       -0.1790
      3 N         140.6366  143.9867  161.3414 N.pl3   1  UNL1       -0.2060
      4 C         141.1227  144.3586  159.9719 C.ar    1  UNL1        0.1052
      5 C         140.3318  145.3149  159.1294 C.ar    1  UNL1        0.0490
      6 C         140.8179  145.6868  157.7599 C.ar    1  UNL1        0.1416
      7 F         140.0269  146.6431  156.9173 F       1  UNL1       -0.2041
      8 C         142.0950  145.1024  157.2331 C.ar    1  UNL1        0.0328
      9 C         142.8859  144.1462  158.0756 C.ar    1  UNL1        0.0405
     10 C         142.3998  143.7743  159.4450 C.ar    1  UNL1        0.1537
     11 O         143.1908  142.8180  160.2876 O.3     1  UNL1       -0.4723
     12 C         142.7047  142.4461  161.6570 C.3     1  UNL1        0.2277
     13 C         141.4276  143.0304  162.1839 C.3     1  UNL1        0.1488
     14 C         140.7038  142.8515  163.4855 C.3     1  UNL1        0.0806
     15 C         141.8405  141.9281  163.8099 C.ar    1  UNL1       -0.0157
     16 C         141.6664  140.4452  163.6662 C.ar    1  UNL1       -0.0039
     17 C         142.8030  139.5216  163.9906 C.ar    1  UNL1       -0.0003
     18 C         144.1137  140.0810  164.4588 C.ar    1  UNL1       -0.0000
     19 C         144.2878  141.5639  164.6025 C.ar    1  UNL1       -0.0003
     20 C         143.1512  142.4875  164.2781 C.ar    1  UNL1       -0.0039
     21 C         138.4760  145.0032  165.4636 C.3     1  UNL1        0.0786
     22 C         138.4476  143.8199  164.5422 C.2     1  UNL1        0.1887
     23 O         137.4012  142.7593  164.7156 O.2     1  UNL1       -0.2900
     24 C         140.2177  142.4796  164.8550 C.3     1  UNL1        0.0130
     25 C         141.0443  142.8148  166.0609 C.3     1  UNL1        0.0181
     26 C         140.4577  142.6759  167.4344 C.3     1  UNL1        0.0722
     27 N         140.8680  141.5314  168.3131 N.3     1  UNL1       -0.2708
     28 C         139.9866  141.2729  169.4989 C.3     1  UNL1        0.0936
     29 C         140.1250  140.2158  170.5542 C.3     1  UNL1        0.1067
     30 N         141.1789  139.1564  170.6842 N.am    1  UNL1       -0.3029
     31 C         142.3547  138.8924  169.7911 C.2     1  UNL1        0.2239
     32 O         143.2346  137.7466  170.1952 O.2     1  UNL1       -0.2751
     33 C         142.7671  139.6224  168.5474 C.3     1  UNL1        0.1023
     34 C         142.1054  140.7970  167.8896 C.3     1  UNL1        0.0818
     35 H         141.0867  138.5549  171.4581 H       1  UNL1        0.1495
@<TRIPOS>BOND
     1    21    22    1
     2    22    23    2
     3    22     1    1
     4     1     2    2
     5     2     3    1
     6     3     4    1
     7     4     5   ar
     8     5     6   ar
     9     6     7    1
    10     6     8   ar
    11     8     9   ar
    12     9    10   ar
    13    10    11    1
    14    11    12    1
    15    13    12    1
    16    13    14    1
    17    14    24    1
    18    24    25    1
    19    25    26    1
    20    26    27    1
    21    27    28    1
    22    28    29    1
    23    29    30    1
    24    30    31   am
    25    31    32    2
    26    31    33    1
    27    33    34    1
    28    14    15    1
    29    15    16   ar
    30    16    17   ar
    31    17    18   ar
    32    18    19   ar
    33    19    20   ar
    34    14     1    1
    35    34    27    1
    36    20    15   ar
    37    13     3    1
    38    10     4   ar
    39    30    35    1
@<TRIPOS>MOLECULE
*****
 35 39 0 0 0
SMALL
GASTEIGER

@<TRIPOS>ATOM
      1 C         139.5152  139.1242  162.7388 C.2     1  UNL1        0.1157
      2 N         139.3208  138.9870  161.2578 N.2     1  UNL1       -0.1790
      3 N         139.0489  140.3517  160.6976 N.pl3   1  UNL1       -0.2060
      4 C         138.7808  140.8280  159.3007 C.ar    1  UNL1        0.1052
      5 C         138.7545  139.8474  158.1660 C.ar    1  UNL1        0.0490
      6 C         138.4864  140.3238  156.7692 C.ar    1  UNL1        0.1416
      7 F         138.4601  139.3432  155.6343 F       1  UNL1       -0.2041
      8 C         138.2445  141.7808  156.5071 C.ar    1  UNL1        0.0328
      9 C         138.2708  142.7614  157.6419 C.ar    1  UNL1        0.0405
     10 C         138.5389  142.2850  159.0387 C.ar    1  UNL1        0.1537
     11 O         138.5652  143.2656  160.1735 O.3     1  UNL1       -0.4723
     12 C         138.8333  142.7892  161.5703 C.3     1  UNL1        0.2277
     13 C         139.0752  141.3323  161.8324 C.3     1  UNL1        0.1488
     14 C         139.3633  140.5737  163.0939 C.3     1  UNL1        0.0806
     15 C         139.2676  141.9235  163.7410 C.ar    1  UNL1       -0.0157
     16 C         140.4662  142.8245  163.7773 C.ar    1  UNL1       -0.0039
     17 C         140.3705  144.1744  164.4245 C.ar    1  UNL1       -0.0003
     18 C         139.0761  144.6232  165.0354 C.ar    1  UNL1       -0.0000
     19 C         137.8775  143.7222  164.9991 C.ar    1  UNL1       -0.0003
     20 C         137.9732  142.3723  164.3519 C.ar    1  UNL1       -0.0039
     21 C         141.1041  137.2566  163.5976 C.3     1  UNL1        0.0786
     22 C         139.8096  138.0079  163.6966 C.2     1  UNL1        0.1887
     23 O         138.8096  137.6431  164.7534 O.2     1  UNL1       -0.2900
     24 C         139.6315  140.0973  164.4908 C.3     1  UNL1        0.0130
     25 C         140.9330  140.4279  165.1591 C.3     1  UNL1        0.0181
     26 C         141.2263  139.9002  166.5322 C.3     1  UNL1        0.0722
     27 N         140.8395  140.6994  167.7413 N.3     1  UNL1       -0.2708
     28 C         140.6280  139.9128  169.0009 C.3     1  UNL1        0.0936
     29 C         140.2401  140.4121  170.3612 C.3     1  UNL1        0.1067
     30 N         139.9680  141.8211  170.7978 N.am    1  UNL1       -0.3029
     31 C         140.0166  143.0789  169.9820 C.2     1  UNL1        0.2239
     32 O         139.6892  144.3447  170.7173 O.2     1  UNL1       -0.2751
     33 C         140.3492  143.2384  168.5281 C.3     1  UNL1        0.1023
     34 C         140.7155  142.1793  167.5309 C.3     1  UNL1        0.0818
     35 H         139.7255  141.9355  171.7451 H       1  UNL1        0.1495
@<TRIPOS>BOND
     1    21    22    1
     2    22    23    2
     3    22     1    1
     4     1     2    2
     5     2     3    1
     6     3     4    1
     7     4     5   ar
     8     5     6   ar
     9     6     7    1
    10     6     8   ar
    11     8     9   ar
    12     9    10   ar
    13    10    11    1
    14    11    12    1
    15    13    12    1
    16    13    14    1
    17    14    24    1
    18    24    25    1
    19    25    26    1
    20    26    27    1
    21    27    28    1
    22    28    29    1
    23    29    30    1
    24    30    31   am
    25    31    32    2
    26    31    33    1
    27    33    34    1
    28    14    15    1
    29    15    16   ar
    30    16    17   ar
    31    17    18   ar
    32    18    19   ar
    33    19    20   ar
    34    14     1    1
    35    34    27    1
    36    20    15   ar
    37    13     3    1
    38    10     4   ar
    39    30    35    1
@<TRIPOS>MOLECULE
*****
 35 39 0 0 0
SMALL
GASTEIGER

@<TRIPOS>ATOM
      1 C         143.6697  141.6937  164.2389 C.2     1  UNL1        0.1157
      2 N         143.8036  142.2082  165.6415 N.2     1  UNL1       -0.1790
      3 N         142.7940  141.4982  166.4939 N.pl3   1  UNL1       -0.2060
      4 C         142.4668  141.5967  167.9545 C.ar    1  UNL1        0.1052
      5 C         143.2246  142.5500  168.8303 C.ar    1  UNL1        0.0490
      6 C         142.8974  142.6484  170.2908 C.ar    1  UNL1        0.1416
      7 F         143.6553  143.6018  171.1666 F       1  UNL1       -0.2041
      8 C         141.8125  141.7936  170.8756 C.ar    1  UNL1        0.0328
      9 C         141.0547  140.8403  169.9999 C.ar    1  UNL1        0.0405
     10 C         141.3818  140.7418  168.5394 C.ar    1  UNL1        0.1537
     11 O         140.6240  139.7885  167.6635 O.3     1  UNL1       -0.4723
     12 C         140.9512  139.6901  166.2030 C.3     1  UNL1        0.2277
     13 C         142.0362  140.5450  165.6182 C.3     1  UNL1        0.1488
     14 C         142.5775  140.6657  164.2245 C.3     1  UNL1        0.0806
     15 C         141.5536  139.6172  163.9047 C.ar    1  UNL1       -0.0157
     16 C         141.9808  138.1986  163.6702 C.ar    1  UNL1       -0.0039
     17 C         140.9569  137.1500  163.3505 C.ar    1  UNL1       -0.0003
     18 C         139.5058  137.5201  163.2652 C.ar    1  UNL1       -0.0000
     19 C         139.0785  138.9387  163.4997 C.ar    1  UNL1       -0.0003
     20 C         140.1024  139.9873  163.8195 C.ar    1  UNL1       -0.0039
     21 C         144.4326  143.5567  162.5965 C.3     1  UNL1        0.0786
     22 C         144.4851  142.1304  163.0579 C.2     1  UNL1        0.1887
     23 O         145.3529  141.1408  162.3385 O.2     1  UNL1       -0.2900
     24 C         142.9046  140.5673  162.7639 C.3     1  UNL1        0.0130
     25 C         141.8573  140.8835  161.7377 C.3     1  UNL1        0.0181
     26 C         141.4555  142.3073  161.4903 C.3     1  UNL1        0.0722
     27 N         140.4304  142.9609  162.3690 N.3     1  UNL1       -0.2708
     28 C         139.0031  142.7930  161.9397 C.3     1  UNL1        0.0936
     29 C         137.7610  143.3188  162.5963 C.3     1  UNL1        0.1067
     30 N         137.6396  144.1422  163.8442 N.am    1  UNL1       -0.3029
     31 C         138.7303  144.6432  164.7437 C.2     1  UNL1        0.2239
     32 O         138.2800  145.4495  165.9258 O.2     1  UNL1       -0.2751
     33 C         140.2117  144.4447  164.6177 C.3     1  UNL1        0.1023
     34 C         140.9684  143.6959  163.5608 C.3     1  UNL1        0.0818
     35 H         136.7229  144.3860  164.1076 H       1  UNL1        0.1495
@<TRIPOS>BOND
     1    21    22    1
     2    22    23    2
     3    22     1    1
     4     1     2    2
     5     2     3    1
     6     3     4    1
     7     4     5   ar
     8     5     6   ar
     9     6     7    1
    10     6     8   ar
    11     8     9   ar
    12     9    10   ar
    13    10    11    1
    14    11    12    1
    15    13    12    1
    16    13    14    1
    17    14    24    1
    18    24    25    1
    19    25    26    1
    20    26    27    1
    21    27    28    1
    22    28    29    1
    23    29    30    1
    24    30    31   am
    25    31    32    2
    26    31    33    1
    27    33    34    1
    28    14    15    1
    29    15    16   ar
    30    16    17   ar
    31    17    18   ar
    32    18    19   ar
    33    19    20   ar
    34    14     1    1
    35    34    27    1
    36    20    15   ar
    37    13     3    1
    38    10     4   ar
    39    30    35    1
@<TRIPOS>MOLECULE
*****
 35 39 0 0 0
SMALL
GASTEIGER

@<TRIPOS>ATOM
      1 C         142.3738  139.5569  164.3135 C.2     1  UNL1        0.1157
      2 N         142.4720  138.7631  163.0445 N.2     1  UNL1       -0.1790
      3 N         142.5126  139.7276  161.8965 N.pl3   1  UNL1       -0.2060
      4 C         142.6067  139.5198  160.4139 C.ar    1  UNL1        0.1052
      5 C         142.6799  138.1300  159.8545 C.ar    1  UNL1        0.0490
      6 C         142.7740  137.9223  158.3720 C.ar    1  UNL1        0.1416
      7 F         142.8472  136.5324  157.8125 F       1  UNL1       -0.2041
      8 C         142.7950  139.1044  157.4488 C.ar    1  UNL1        0.0328
      9 C         142.7218  140.4942  158.0082 C.ar    1  UNL1        0.0405
     10 C         142.6276  140.7019  159.4907 C.ar    1  UNL1        0.1537
     11 O         142.5544  142.0918  160.0502 O.3     1  UNL1       -0.4723
     12 C         142.4603  142.2996  161.5327 C.3     1  UNL1        0.2277
     13 C         142.4394  141.1175  162.4559 C.3     1  UNL1        0.1488
     14 C         142.3536  141.0119  163.9497 C.3     1  UNL1        0.0806
     15 C         142.3138  142.5104  163.8958 C.ar    1  UNL1       -0.0157
     16 C         141.0056  143.2313  164.0337 C.ar    1  UNL1       -0.0039
     17 C         140.9657  144.7299  163.9799 C.ar    1  UNL1       -0.0003
     18 C         142.2340  145.5075  163.7881 C.ar    1  UNL1       -0.0000
     19 C         143.5421  144.7866  163.6502 C.ar    1  UNL1       -0.0003
     20 C         143.5821  143.2880  163.7041 C.ar    1  UNL1       -0.0039
     21 C         143.5218  138.3608  166.3140 C.3     1  UNL1        0.0786
     22 C         142.3074  138.9943  165.7025 C.2     1  UNL1        0.1887
     23 O         141.0265  139.0652  166.4799 O.2     1  UNL1       -0.2900
     24 C         142.2595  141.2197  165.4323 C.3     1  UNL1        0.0130
     25 C         143.3188  142.0039  166.1485 C.3     1  UNL1        0.0181
     26 C         143.1370  142.3647  167.5930 C.3     1  UNL1        0.0722
     27 N         142.2287  141.5461  168.4619 N.3     1  UNL1       -0.2708
     28 C         142.8825  140.4231  169.2111 C.3     1  UNL1        0.0936
     29 C         142.2557  139.4355  170.1501 C.3     1  UNL1        0.1067
     30 N         140.8204  139.3270  170.5719 N.am    1  UNL1       -0.3029
     31 C         139.6572  140.1793  170.1589 C.2     1  UNL1        0.2239
     32 O         138.3341  139.8117  170.7625 O.2     1  UNL1       -0.2751
     33 C         139.6422  141.3506  169.2220 C.3     1  UNL1        0.1023
     34 C         140.7866  141.9589  168.4668 C.3     1  UNL1        0.0818
     35 H         140.6144  138.6003  171.2034 H       1  UNL1        0.1495
@<TRIPOS>BOND
     1    21    22    1
     2    22    23    2
     3    22     1    1
     4     1     2    2
     5     2     3    1
     6     3     4    1
     7     4     5   ar
     8     5     6   ar
     9     6     7    1
    10     6     8   ar
    11     8     9   ar
    12     9    10   ar
    13    10    11    1
    14    11    12    1
    15    13    12    1
    16    13    14    1
    17    14    24    1
    18    24    25    1
    19    25    26    1
    20    26    27    1
    21    27    28    1
    22    28    29    1
    23    29    30    1
    24    30    31   am
    25    31    32    2
    26    31    33    1
    27    33    34    1
    28    14    15    1
    29    15    16   ar
    30    16    17   ar
    31    17    18   ar
    32    18    19   ar
    33    19    20   ar
    34    14     1    1
    35    34    27    1
    36    20    15   ar
    37    13     3    1
    38    10     4   ar
    39    30    35    1
@<TRIPOS>MOLECULE
*****
 35 39 0 0 0
SMALL
GASTEIGER

@<TRIPOS>ATOM
      1 C         139.6766  143.7990  162.9910 C.2     1  UNL1        0.1157
      2 N         139.4416  144.5336  161.7045 N.2     1  UNL1       -0.1790
      3 N         140.6318  144.3106  160.8193 N.pl3   1  UNL1       -0.2060
      4 C         140.9572  144.7893  159.4354 C.ar    1  UNL1        0.1052
      5 C         139.9866  145.6618  158.6961 C.ar    1  UNL1        0.0490
      6 C         140.3120  146.1404  157.3123 C.ar    1  UNL1        0.1416
      7 F         139.3414  147.0130  156.5729 F       1  UNL1       -0.2041
      8 C         141.6080  145.7466  156.6678 C.ar    1  UNL1        0.0328
      9 C         142.5786  144.8742  157.4072 C.ar    1  UNL1        0.0405
     10 C         142.2532  144.3955  158.7910 C.ar    1  UNL1        0.1537
     11 O         143.2238  143.5230  159.5304 O.3     1  UNL1       -0.4723
     12 C         142.8984  143.0443  160.9142 C.3     1  UNL1        0.2277
     13 C         141.6024  143.4381  161.5587 C.3     1  UNL1        0.1488
     14 C         141.0120  143.1219  162.9008 C.3     1  UNL1        0.0806
     15 C         142.2795  142.3448  163.1000 C.ar    1  UNL1       -0.0157
     16 C         143.5533  143.0612  163.4376 C.ar    1  UNL1       -0.0039
     17 C         144.8208  142.2841  163.6368 C.ar    1  UNL1       -0.0003
     18 C         144.8144  140.7905  163.4984 C.ar    1  UNL1       -0.0000
     19 C         143.5406  140.0740  163.1609 C.ar    1  UNL1       -0.0003
     20 C         142.2730  140.8512  162.9616 C.ar    1  UNL1       -0.0039
     21 C         137.8642  142.5508  164.3721 C.3     1  UNL1        0.0786
     22 C         138.7404  143.7500  164.1620 C.2     1  UNL1        0.1887
     23 O         138.6805  144.9002  165.1229 O.2     1  UNL1       -0.2900
     24 C         140.6867  142.6432  164.2847 C.3     1  UNL1        0.0130
     25 C         141.4461  143.1795  165.4618 C.3     1  UNL1        0.0181
     26 C         141.9277  142.2457  166.5322 C.3     1  UNL1        0.0722
     27 N         141.0324  141.9011  167.6854 N.3     1  UNL1       -0.2708
     28 C         140.9837  142.9088  168.7953 C.3     1  UNL1        0.0936
     29 C         140.1946  142.8586  170.0701 C.3     1  UNL1        0.1067
     30 N         139.2595  141.7883  170.5497 N.am    1  UNL1       -0.3029
     31 C         138.8825  140.5039  169.8730 C.2     1  UNL1        0.2239
     32 O         137.9121  139.6360  170.6183 O.2     1  UNL1       -0.2751
     33 C         139.3473  139.9724  168.5496 C.3     1  UNL1        0.1023
     34 C         140.3041  140.5943  167.5760 C.3     1  UNL1        0.0818
     35 H         138.8374  141.9503  171.4243 H       1  UNL1        0.1495
@<TRIPOS>BOND
     1    21    22    1
     2    22    23    2
     3    22     1    1
     4     1     2    2
     5     2     3    1
     6     3     4    1
     7     4     5   ar
     8     5     6   ar
     9     6     7    1
    10     6     8   ar
    11     8     9   ar
    12     9    10   ar
    13    10    11    1
    14    11    12    1
    15    13    12    1
    16    13    14    1
    17    14    24    1
    18    24    25    1
    19    25    26    1
    20    26    27    1
    21    27    28    1
    22    28    29    1
    23    29    30    1
    24    30    31   am
    25    31    32    2
    26    31    33    1
    27    33    34    1
    28    14    15    1
    29    15    16   ar
    30    16    17   ar
    31    17    18   ar
    32    18    19   ar
    33    19    20   ar
    34    14     1    1
    35    34    27    1
    36    20    15   ar
    37    13     3    1
    38    10     4   ar
    39    30    35    1
