@<TRIPOS>MOLECULE
*****
 33 38 0 0 0
SMALL
GASTEIGER

@<TRIPOS>ATOM
      1 C         138.7815  142.2240  161.8156 C.2     1  UNL1        0.0866
      2 N         137.7843  141.2076  161.3440 N.2     1  UNL1       -0.1523
      3 N         137.4916  140.2805  162.4863 N.2     1  UNL1       -0.1523
      4 C         138.3079  140.7241  163.6640 C.2     1  UNL1        0.0858
      5 C         139.1051  141.9252  163.2495 C.3     1  UNL1        0.0883
      6 C         139.9214  142.3686  164.4272 C.3     1  UNL1        0.0384
      7 C         139.6288  141.4417  165.5696 C.ar    1  UNL1       -0.0205
      8 C         140.1415  141.3918  166.9783 C.ar    1  UNL1       -0.0065
      9 C         139.6569  140.3255  167.9154 C.ar    1  UNL1        0.0018
     10 C         138.6597  139.3090  167.4438 C.ar    1  UNL1       -0.0023
     11 C         138.1470  139.3589  166.0350 C.ar    1  UNL1        0.0007
     12 C         138.6316  140.4252  165.0979 C.ar    1  UNL1        0.0117
     13 C         140.1013  144.6751  159.1109 C.ar    1  UNL1        0.0710
     14 C         139.4728  143.3704  159.5020 C.ar    1  UNL1        0.0165
     15 C         139.3545  143.3428  160.9971 C.ar    1  UNL1        0.0233
     16 C         139.9097  144.6304  161.5300 C.ar    1  UNL1        0.0373
     17 S         140.3712  145.4538  160.3642 S.2     1  UNL1       -0.0780
     18 C         140.7110  145.5700  156.3131 C.1     1  UNL1       -0.0388
     19 C         140.4061  145.1226  157.7120 C.1     1  UNL1       -0.0543
     20 C         141.0159  146.0175  154.9142 C.3     1  UNL1        0.2814
     21 O         139.9766  146.7493  154.1176 O.3     1  UNL1       -0.4612
     22 C         139.6488  148.1762  154.4438 C.ar    1  UNL1        0.1400
     23 C         138.7929  148.4961  155.6333 C.ar    1  UNL1        0.0369
     24 C         138.4651  149.9231  155.9594 C.ar    1  UNL1        0.0031
     25 C         138.9933  151.0301  155.0961 C.ar    1  UNL1        0.0002
     26 C         139.8493  150.7102  153.9065 C.ar    1  UNL1        0.0031
     27 C         140.1771  149.2833  153.5803 C.ar    1  UNL1        0.0369
     28 C         140.1696  140.2756  169.3242 C.3     1  UNL1        0.1538
     29 N         141.3538  141.1063  169.7213 N.ar    1  UNL1       -0.2449
     30 C         142.7921  140.7773  169.4511 C.ar    1  UNL1        0.0971
     31 C         143.6348  141.8796  170.0211 C.ar    1  UNL1        0.0427
     32 C         142.7172  142.8899  170.6435 C.ar    1  UNL1        0.1217
     33 N         141.3075  142.4120  170.4582 N.ar    1  UNL1       -0.1673
@<TRIPOS>BOND
     1    18    19    3
     2    19    13    1
     3    13    14   ar
     4    14    15   ar
     5    15     1    1
     6     1     2    2
     7     2     3    1
     8     3     4    2
     9     4     5    1
    10     5     6    1
    11     6     7    1
    12     7     8   ar
    13     8     9   ar
    14     9    28    1
    15    28    29    1
    16    29    30   ar
    17    30    31   ar
    18    31    32   ar
    19    32    33   ar
    20     9    10   ar
    21    10    11   ar
    22    11    12   ar
    23    15    16   ar
    24    16    17   ar
    25    18    20    1
    26    20    21    1
    27    21    22    1
    28    22    23   ar
    29    23    24   ar
    30    24    25   ar
    31    25    26   ar
    32    26    27   ar
    33    17    13   ar
    34    27    22   ar
    35     5     1    1
    36    12     7   ar
    37    12     4    1
    38    33    29   ar
@<TRIPOS>MOLECULE
*****
 33 38 0 0 0
SMALL
GASTEIGER

@<TRIPOS>ATOM
      1 C         138.4777  140.2015  159.1979 C.2     1  UNL1        0.0866
      2 N         137.5483  140.5827  158.0839 N.2     1  UNL1       -0.1523
      3 N         138.0512  139.9459  156.8223 N.2     1  UNL1       -0.1523
      4 C         139.2914  139.1711  157.1566 C.2     1  UNL1        0.0858
      5 C         139.5549  139.3291  158.6248 C.3     1  UNL1        0.0883
      6 C         140.7951  138.5544  158.9591 C.3     1  UNL1        0.0384
      7 C         141.2980  137.9175  157.6976 C.ar    1  UNL1       -0.0205
      8 C         142.4821  137.0398  157.4193 C.ar    1  UNL1       -0.0065
      9 C         142.7368  136.5433  156.0270 C.ar    1  UNL1        0.0018
     10 C         141.8075  136.9245  154.9130 C.ar    1  UNL1       -0.0023
     11 C         140.6234  137.8022  155.1912 C.ar    1  UNL1        0.0007
     12 C         140.3687  138.2987  156.5835 C.ar    1  UNL1        0.0117
     13 C         138.1935  140.5438  163.0538 C.ar    1  UNL1        0.0710
     14 C         138.3350  139.7023  161.8200 C.ar    1  UNL1        0.0165
     15 C         138.3518  140.6194  160.6331 C.ar    1  UNL1        0.0233
     16 C         138.2208  142.0274  161.1332 C.ar    1  UNL1        0.0373
     17 S         138.1229  141.9807  162.6293 S.2     1  UNL1       -0.0780
     18 C         138.0730  139.5305  165.8749 C.1     1  UNL1       -0.0388
     19 C         138.1332  140.0372  164.4644 C.1     1  UNL1       -0.0543
     20 C         138.0127  139.0239  167.2855 C.3     1  UNL1        0.2814
     21 O         139.1824  139.2207  168.2037 O.3     1  UNL1       -0.4612
     22 C         139.6167  140.6067  168.5786 C.ar    1  UNL1        0.1400
     23 C         140.2746  141.4881  167.5588 C.ar    1  UNL1        0.0369
     24 C         140.7089  142.8741  167.9336 C.ar    1  UNL1        0.0031
     25 C         140.4852  143.3786  169.3284 C.ar    1  UNL1        0.0002
     26 C         139.8273  142.4971  170.3484 C.ar    1  UNL1        0.0031
     27 C         139.3930  141.1112  169.9735 C.ar    1  UNL1        0.0369
     28 C         143.9210  135.6655  155.7486 C.3     1  UNL1        0.1538
     29 N         143.8905  134.2182  156.1415 N.ar    1  UNL1       -0.2449
     30 C         143.4725  133.0752  155.2646 C.ar    1  UNL1        0.0971
     31 C         143.5963  131.8104  156.0614 C.ar    1  UNL1        0.0427
     32 C         144.0909  132.1716  157.4306 C.ar    1  UNL1        0.1217
     33 N         144.2727  133.6597  157.4801 N.ar    1  UNL1       -0.1673
@<TRIPOS>BOND
     1    18    19    3
     2    19    13    1
     3    13    14   ar
     4    14    15   ar
     5    15     1    1
     6     1     2    2
     7     2     3    1
     8     3     4    2
     9     4     5    1
    10     5     6    1
    11     6     7    1
    12     7     8   ar
    13     8     9   ar
    14     9    28    1
    15    28    29    1
    16    29    30   ar
    17    30    31   ar
    18    31    32   ar
    19    32    33   ar
    20     9    10   ar
    21    10    11   ar
    22    11    12   ar
    23    15    16   ar
    24    16    17   ar
    25    18    20    1
    26    20    21    1
    27    21    22    1
    28    22    23   ar
    29    23    24   ar
    30    24    25   ar
    31    25    26   ar
    32    26    27   ar
    33    17    13   ar
    34    27    22   ar
    35     5     1    1
    36    12     7   ar
    37    12     4    1
    38    33    29   ar
@<TRIPOS>MOLECULE
*****
 33 38 0 0 0
SMALL
GASTEIGER

@<TRIPOS>ATOM
      1 C         143.3732  143.0631  160.0636 C.2     1  UNL1        0.0866
      2 N         144.4028  142.4631  159.1526 N.2     1  UNL1       -0.1523
      3 N         144.1272  142.9463  157.7596 N.2     1  UNL1       -0.1523
      4 C         142.9273  143.8451  157.8097 C.2     1  UNL1        0.0858
      5 C         142.4613  143.9173  159.2337 C.3     1  UNL1        0.0883
      6 C         141.2614  144.8160  159.2837 C.3     1  UNL1        0.0384
      7 C         140.9858  145.2993  157.8907 C.ar    1  UNL1       -0.0205
      8 C         139.9304  146.2083  157.3342 C.ar    1  UNL1       -0.0065
      9 C         139.9045  146.5172  155.8666 C.ar    1  UNL1        0.0018
     10 C         140.9340  145.9171  154.9556 C.ar    1  UNL1       -0.0023
     11 C         141.9895  145.0082  155.5121 C.ar    1  UNL1        0.0007
     12 C         142.0154  144.6993  156.9797 C.ar    1  UNL1        0.0117
     13 C         143.1944  141.7752  163.7208 C.ar    1  UNL1        0.0710
     14 C         143.3362  141.5239  162.2487 C.ar    1  UNL1        0.0165
     15 C         143.2731  142.8470  161.5446 C.ar    1  UNL1        0.0233
     16 C         143.0925  143.9158  162.5814 C.ar    1  UNL1        0.0373
     17 S         143.0438  143.2534  163.9264 S.2     1  UNL1       -0.0780
     18 C         143.2095  139.6877  165.8754 C.1     1  UNL1       -0.0388
     19 C         143.2020  140.7314  164.7981 C.1     1  UNL1       -0.0543
     20 C         143.2171  138.6439  166.9526 C.3     1  UNL1        0.2814
     21 O         143.0734  139.0485  168.3899 O.3     1  UNL1       -0.4612
     22 C         142.2579  140.2543  168.7517 C.ar    1  UNL1        0.1400
     23 C         142.9374  141.5591  169.0443 C.ar    1  UNL1        0.0369
     24 C         142.1218  142.7650  169.4060 C.ar    1  UNL1        0.0031
     25 C         140.6267  142.6659  169.4753 C.ar    1  UNL1        0.0002
     26 C         139.9471  141.3611  169.1827 C.ar    1  UNL1        0.0031
     27 C         140.7627  140.1553  168.8209 C.ar    1  UNL1        0.0369
     28 C         138.8490  147.4262  155.3100 C.3     1  UNL1        0.1538
     29 N         139.0447  148.9129  155.3456 N.ar    1  UNL1       -0.2449
     30 C         139.8989  149.7126  154.4070 C.ar    1  UNL1        0.0971
     31 C         139.8027  151.1549  154.8075 C.ar    1  UNL1        0.0427
     32 C         138.8891  151.2467  155.9936 C.ar    1  UNL1        0.1217
     33 N         138.4206  149.8611  156.3262 N.ar    1  UNL1       -0.1673
@<TRIPOS>BOND
     1    18    19    3
     2    19    13    1
     3    13    14   ar
     4    14    15   ar
     5    15     1    1
     6     1     2    2
     7     2     3    1
     8     3     4    2
     9     4     5    1
    10     5     6    1
    11     6     7    1
    12     7     8   ar
    13     8     9   ar
    14     9    28    1
    15    28    29    1
    16    29    30   ar
    17    30    31   ar
    18    31    32   ar
    19    32    33   ar
    20     9    10   ar
    21    10    11   ar
    22    11    12   ar
    23    15    16   ar
    24    16    17   ar
    25    18    20    1
    26    20    21    1
    27    21    22    1
    28    22    23   ar
    29    23    24   ar
    30    24    25   ar
    31    25    26   ar
    32    26    27   ar
    33    17    13   ar
    34    27    22   ar
    35     5     1    1
    36    12     7   ar
    37    12     4    1
    38    33    29   ar
@<TRIPOS>MOLECULE
*****
 33 38 0 0 0
SMALL
GASTEIGER

@<TRIPOS>ATOM
      1 C         141.3592  136.5303  155.7953 C.2     1  UNL1        0.0866
      2 N         142.2497  137.4209  156.6101 N.2     1  UNL1       -0.1523
      3 N         143.2732  136.5585  157.2875 N.2     1  UNL1       -0.1523
      4 C         143.0152  135.1349  156.8913 C.2     1  UNL1        0.0858
      5 C         141.8323  135.1175  155.9691 C.3     1  UNL1        0.0883
      6 C         141.5743  133.6940  155.5730 C.3     1  UNL1        0.0384
      7 C         142.5978  132.8316  156.2504 C.ar    1  UNL1       -0.0205
      8 C         142.8338  131.3504  156.2305 C.ar    1  UNL1       -0.0065
      9 C         143.9604  130.7598  157.0254 C.ar    1  UNL1        0.0018
     10 C         144.8510  131.6504  157.8402 C.ar    1  UNL1       -0.0023
     11 C         144.6149  133.1315  157.8601 C.ar    1  UNL1        0.0007
     12 C         143.4883  133.7221  157.0651 C.ar    1  UNL1        0.0117
     13 C         138.1908  138.1163  154.2105 C.ar    1  UNL1        0.0710
     14 C         139.1560  137.9769  155.3504 C.ar    1  UNL1        0.0165
     15 C         140.1993  136.9746  154.9543 C.ar    1  UNL1        0.0233
     16 C         139.8790  136.4944  153.5698 C.ar    1  UNL1        0.0373
     17 S         138.6377  137.2001  153.1101 S.2     1  UNL1       -0.0780
     18 C         135.7887  139.9122  154.1434 C.1     1  UNL1       -0.0388
     19 C         136.9898  139.0142  154.1769 C.1     1  UNL1       -0.0543
     20 C         134.5876  140.8101  154.1099 C.3     1  UNL1        0.2814
     21 O         134.0122  141.3410  155.3894 O.3     1  UNL1       -0.4612
     22 C         133.0206  140.5228  156.1622 C.ar    1  UNL1        0.1400
     23 C         133.4994  139.4712  157.1187 C.ar    1  UNL1        0.0369
     24 C         132.5079  138.6529  157.8916 C.ar    1  UNL1        0.0031
     25 C         131.0376  138.8862  157.7079 C.ar    1  UNL1        0.0002
     26 C         130.5587  139.9378  156.7514 C.ar    1  UNL1        0.0031
     27 C         131.5503  140.7561  155.9786 C.ar    1  UNL1        0.0369
     28 C         144.1966  129.2786  157.0056 C.3     1  UNL1        0.1538
     29 N         143.4010  128.3802  157.9056 N.ar    1  UNL1       -0.2449
     30 C         143.1925  128.5688  159.3790 C.ar    1  UNL1        0.0971
     31 C         142.3369  127.4407  159.8742 C.ar    1  UNL1        0.0427
     32 C         142.0166  126.5548  158.7069 C.ar    1  UNL1        0.1217
     33 N         142.6743  127.1355  157.4902 N.ar    1  UNL1       -0.1673
@<TRIPOS>BOND
     1    18    19    3
     2    19    13    1
     3    13    14   ar
     4    14    15   ar
     5    15     1    1
     6     1     2    2
     7     2     3    1
     8     3     4    2
     9     4     5    1
    10     5     6    1
    11     6     7    1
    12     7     8   ar
    13     8     9   ar
    14     9    28    1
    15    28    29    1
    16    29    30   ar
    17    30    31   ar
    18    31    32   ar
    19    32    33   ar
    20     9    10   ar
    21    10    11   ar
    22    11    12   ar
    23    15    16   ar
    24    16    17   ar
    25    18    20    1
    26    20    21    1
    27    21    22    1
    28    22    23   ar
    29    23    24   ar
    30    24    25   ar
    31    25    26   ar
    32    26    27   ar
    33    17    13   ar
    34    27    22   ar
    35     5     1    1
    36    12     7   ar
    37    12     4    1
    38    33    29   ar
@<TRIPOS>MOLECULE
*****
 33 38 0 0 0
SMALL
GASTEIGER

@<TRIPOS>ATOM
      1 C         142.2752  136.9954  156.9525 C.2     1  UNL1        0.0866
      2 N         141.3993  137.3294  155.7814 N.2     1  UNL1       -0.1523
      3 N         141.1493  136.0649  155.0141 N.2     1  UNL1       -0.1523
      4 C         141.8707  134.9495  155.7110 C.2     1  UNL1        0.0858
      5 C         142.5665  135.5246  156.9090 C.3     1  UNL1        0.0883
      6 C         143.2878  134.4092  157.6058 C.3     1  UNL1        0.0384
      7 C         143.0378  133.1448  156.8386 C.ar    1  UNL1       -0.0205
      8 C         143.4945  131.7325  157.0550 C.ar    1  UNL1       -0.0065
      9 C         143.0754  130.6542  156.1003 C.ar    1  UNL1        0.0018
     10 C         142.1996  130.9881  154.9292 C.ar    1  UNL1       -0.0023
     11 C         141.7429  132.4004  154.7128 C.ar    1  UNL1        0.0007
     12 C         142.1620  133.4787  155.6675 C.ar    1  UNL1        0.0117
     13 C         143.4695  138.9220  160.1033 C.ar    1  UNL1        0.0710
     14 C         142.9545  137.6754  159.4467 C.ar    1  UNL1        0.0165
     15 C         142.7724  137.9625  157.9857 C.ar    1  UNL1        0.0233
     16 C         143.1749  139.3864  157.7394 C.ar    1  UNL1        0.0373
     17 S         143.6057  139.9793  159.0481 S.2     1  UNL1       -0.0780
     18 C         144.1140  139.2437  163.0156 C.1     1  UNL1       -0.0388
     19 C         143.7917  139.0828  161.5595 C.1     1  UNL1       -0.0543
     20 C         144.4362  139.4045  164.4717 C.3     1  UNL1        0.2814
     21 O         143.6961  138.5978  165.4972 O.3     1  UNL1       -0.4612
     22 C         142.1962  138.5793  165.4973 C.ar    1  UNL1        0.1400
     23 C         141.4336  139.5983  166.2910 C.ar    1  UNL1        0.0369
     24 C         139.9338  139.5798  166.2911 C.ar    1  UNL1        0.0031
     25 C         139.1965  138.5423  165.4974 C.ar    1  UNL1        0.0002
     26 C         139.9590  137.5233  164.7036 C.ar    1  UNL1        0.0031
     27 C         141.4589  137.5417  164.7035 C.ar    1  UNL1        0.0369
     28 C         143.5321  129.2418  156.3166 C.3     1  UNL1        0.1538
     29 N         142.9373  128.4225  157.4234 N.ar    1  UNL1       -0.2449
     30 C         143.1979  128.6001  158.8899 C.ar    1  UNL1        0.0971
     31 C         142.3991  127.5690  159.6308 C.ar    1  UNL1        0.0427
     32 C         141.6449  126.7542  158.6222 C.ar    1  UNL1        0.1217
     33 N         141.9775  127.2817  157.2580 N.ar    1  UNL1       -0.1673
@<TRIPOS>BOND
     1    18    19    3
     2    19    13    1
     3    13    14   ar
     4    14    15   ar
     5    15     1    1
     6     1     2    2
     7     2     3    1
     8     3     4    2
     9     4     5    1
    10     5     6    1
    11     6     7    1
    12     7     8   ar
    13     8     9   ar
    14     9    28    1
    15    28    29    1
    16    29    30   ar
    17    30    31   ar
    18    31    32   ar
    19    32    33   ar
    20     9    10   ar
    21    10    11   ar
    22    11    12   ar
    23    15    16   ar
    24    16    17   ar
    25    18    20    1
    26    20    21    1
    27    21    22    1
    28    22    23   ar
    29    23    24   ar
    30    24    25   ar
    31    25    26   ar
    32    26    27   ar
    33    17    13   ar
    34    27    22   ar
    35     5     1    1
    36    12     7   ar
    37    12     4    1
    38    33    29   ar
@<TRIPOS>MOLECULE
*****
 33 38 0 0 0
SMALL
GASTEIGER

@<TRIPOS>ATOM
      1 C         142.1496  137.1497  156.7645 C.2     1  UNL1        0.0866
      2 N         141.1183  137.3610  155.6959 N.2     1  UNL1       -0.1523
      3 N         140.8233  136.0315  155.0670 N.2     1  UNL1       -0.1523
      4 C         141.6723  134.9985  155.7470 C.2     1  UNL1        0.0858
      5 C         142.4919  135.6896  156.7961 C.3     1  UNL1        0.0883
      6 C         143.3408  134.6567  157.4760 C.3     1  UNL1        0.0384
      7 C         143.0459  133.3272  156.8471 C.ar    1  UNL1       -0.0205
      8 C         143.5831  131.9515  157.1095 C.ar    1  UNL1       -0.0065
      9 C         143.0890  130.7871  156.3033 C.ar    1  UNL1        0.0018
     10 C         142.0578  130.9984  155.2347 C.ar    1  UNL1       -0.0023
     11 C         141.5206  132.3741  154.9723 C.ar    1  UNL1        0.0007
     12 C         142.0146  133.5385  155.7785 C.ar    1  UNL1        0.0117
     13 C         143.5609  139.3953  159.5985 C.ar    1  UNL1        0.0710
     14 C         142.9562  138.1061  159.1266 C.ar    1  UNL1        0.0165
     15 C         142.7356  138.2120  157.6467 C.ar    1  UNL1        0.0233
     16 C         143.2038  139.5665  157.2039 C.ar    1  UNL1        0.0373
     17 S         143.7139  140.2978  158.4101 S.2     1  UNL1       -0.0780
     18 C         144.3292  140.0531  162.4228 C.1     1  UNL1       -0.0388
     19 C         143.9450  139.7242  161.0106 C.1     1  UNL1       -0.0543
     20 C         144.7133  140.3820  163.8350 C.3     1  UNL1        0.2814
     21 O         143.7216  141.0398  164.7482 O.3     1  UNL1       -0.4612
     22 C         143.2359  142.4279  164.4527 C.ar    1  UNL1        0.1400
     23 C         141.7716  142.7430  164.5324 C.ar    1  UNL1        0.0369
     24 C         141.2859  144.1311  164.2370 C.ar    1  UNL1        0.0031
     25 C         142.2646  145.2041  163.8618 C.ar    1  UNL1        0.0002
     26 C         143.7290  144.8891  163.7821 C.ar    1  UNL1        0.0031
     27 C         144.2147  143.5010  164.0776 C.ar    1  UNL1        0.0369
     28 C         143.6262  129.4113  156.5656 C.3     1  UNL1        0.1538
     29 N         143.5009  128.8052  157.9319 N.ar    1  UNL1       -0.2449
     30 C         144.4456  129.0126  159.0785 C.ar    1  UNL1        0.0971
     31 C         143.9374  128.2209  160.2468 C.ar    1  UNL1        0.0427
     32 C         142.6787  127.5241  159.8223 C.ar    1  UNL1        0.1217
     33 N         142.4090  127.8853  158.3917 N.ar    1  UNL1       -0.1673
@<TRIPOS>BOND
     1    18    19    3
     2    19    13    1
     3    13    14   ar
     4    14    15   ar
     5    15     1    1
     6     1     2    2
     7     2     3    1
     8     3     4    2
     9     4     5    1
    10     5     6    1
    11     6     7    1
    12     7     8   ar
    13     8     9   ar
    14     9    28    1
    15    28    29    1
    16    29    30   ar
    17    30    31   ar
    18    31    32   ar
    19    32    33   ar
    20     9    10   ar
    21    10    11   ar
    22    11    12   ar
    23    15    16   ar
    24    16    17   ar
    25    18    20    1
    26    20    21    1
    27    21    22    1
    28    22    23   ar
    29    23    24   ar
    30    24    25   ar
    31    25    26   ar
    32    26    27   ar
    33    17    13   ar
    34    27    22   ar
    35     5     1    1
    36    12     7   ar
    37    12     4    1
    38    33    29   ar
@<TRIPOS>MOLECULE
*****
 33 38 0 0 0
SMALL
GASTEIGER

@<TRIPOS>ATOM
      1 C         140.2925  144.5671  158.5738 C.2     1  UNL1        0.0866
      2 N         140.5215  145.6754  157.5892 N.2     1  UNL1       -0.1523
      3 N         139.6335  145.4340  156.4046 N.2     1  UNL1       -0.1523
      4 C         138.8556  144.1765  156.6572 C.2     1  UNL1        0.0858
      5 C         139.2629  143.6408  157.9977 C.3     1  UNL1        0.0883
      6 C         138.4850  142.3834  158.2502 C.3     1  UNL1        0.0384
      7 C         137.5970  142.1419  157.0657 C.ar    1  UNL1       -0.0205
      8 C         136.6094  141.0561  156.7564 C.ar    1  UNL1       -0.0065
      9 C         135.8508  141.0785  155.4626 C.ar    1  UNL1        0.0018
     10 C         136.0799  142.1868  154.4780 C.ar    1  UNL1       -0.0023
     11 C         137.0674  143.2726  154.7873 C.ar    1  UNL1        0.0007
     12 C         137.8260  143.2501  156.0811 C.ar    1  UNL1        0.0117
     13 C         142.4718  143.6504  161.6521 C.ar    1  UNL1        0.0710
     14 C         142.1025  143.4739  160.2089 C.ar    1  UNL1        0.0165
     15 C         140.9735  144.4124  159.9013 C.ar    1  UNL1        0.0233
     16 C         140.6451  145.1690  161.1542 C.ar    1  UNL1        0.0373
     17 S         141.5711  144.6981  162.2362 S.2     1  UNL1       -0.0780
     18 C         144.6325  142.1685  163.1133 C.1     1  UNL1       -0.0388
     19 C         143.5521  142.9095  162.3827 C.1     1  UNL1       -0.0543
     20 C         145.7129  141.4275  163.8439 C.3     1  UNL1        0.2814
     21 O         145.5292  139.9786  164.1858 O.3     1  UNL1       -0.4612
     22 C         144.2278  139.2961  163.8848 C.ar    1  UNL1        0.1400
     23 C         143.2051  139.1202  164.9679 C.ar    1  UNL1        0.0369
     24 C         141.9037  138.4378  164.6670 C.ar    1  UNL1        0.0031
     25 C         141.6249  137.9312  163.2829 C.ar    1  UNL1        0.0002
     26 C         142.6476  138.1071  162.1997 C.ar    1  UNL1        0.0031
     27 C         143.9491  138.7896  162.5007 C.ar    1  UNL1        0.0369
     28 C         134.8632  139.9927  155.1533 C.3     1  UNL1        0.1538
     29 N         133.7168  139.7338  156.0854 N.ar    1  UNL1       -0.2449
     30 C         132.4537  140.5379  156.1742 C.ar    1  UNL1        0.0971
     31 C         131.5885  139.9264  157.2360 C.ar    1  UNL1        0.0427
     32 C         132.3169  138.7443  157.8035 C.ar    1  UNL1        0.1217
     33 N         133.6323  138.6253  157.0924 N.ar    1  UNL1       -0.1673
@<TRIPOS>BOND
     1    18    19    3
     2    19    13    1
     3    13    14   ar
     4    14    15   ar
     5    15     1    1
     6     1     2    2
     7     2     3    1
     8     3     4    2
     9     4     5    1
    10     5     6    1
    11     6     7    1
    12     7     8   ar
    13     8     9   ar
    14     9    28    1
    15    28    29    1
    16    29    30   ar
    17    30    31   ar
    18    31    32   ar
    19    32    33   ar
    20     9    10   ar
    21    10    11   ar
    22    11    12   ar
    23    15    16   ar
    24    16    17   ar
    25    18    20    1
    26    20    21    1
    27    21    22    1
    28    22    23   ar
    29    23    24   ar
    30    24    25   ar
    31    25    26   ar
    32    26    27   ar
    33    17    13   ar
    34    27    22   ar
    35     5     1    1
    36    12     7   ar
    37    12     4    1
    38    33    29   ar
@<TRIPOS>MOLECULE
*****
 33 38 0 0 0
SMALL
GASTEIGER

@<TRIPOS>ATOM
      1 C         142.5893  142.2569  161.3575 C.2     1  UNL1        0.0866
      2 N         143.5624  141.4030  160.5998 N.2     1  UNL1       -0.1523
      3 N         144.0875  140.3557  161.5366 N.2     1  UNL1       -0.1523
      4 C         143.4388  140.5623  162.8733 C.2     1  UNL1        0.0858
      5 C         142.5130  141.7373  162.7625 C.3     1  UNL1        0.0883
      6 C         141.8644  141.9439  164.0992 C.3     1  UNL1        0.0384
      7 C         142.3893  140.8966  165.0360 C.ar    1  UNL1       -0.0205
      8 C         142.1070  140.6102  166.4811 C.ar    1  UNL1       -0.0065
      9 C         142.7978  139.4699  167.1684 C.ar    1  UNL1        0.0018
     10 C         143.7709  138.6160  166.4108 C.ar    1  UNL1       -0.0023
     11 C         144.0532  138.9025  164.9657 C.ar    1  UNL1        0.0007
     12 C         143.3624  140.0427  164.2783 C.ar    1  UNL1        0.0117
     13 C         140.7695  144.9709  159.2627 C.ar    1  UNL1        0.0710
     14 C         141.5672  143.7039  159.3559 C.ar    1  UNL1        0.0165
     15 C         141.8266  143.4252  160.8068 C.ar    1  UNL1        0.0233
     16 C         141.1893  144.5199  161.6103 C.ar    1  UNL1        0.0373
     17 S         140.5361  145.4751  160.6560 S.2     1  UNL1       -0.0780
     18 C         139.8098  146.2684  156.7338 C.1     1  UNL1       -0.0388
     19 C         140.2897  145.6196  157.9982 C.1     1  UNL1       -0.0543
     20 C         139.3300  146.9171  155.4693 C.3     1  UNL1        0.2814
     21 O         140.2169  147.8801  154.7371 O.3     1  UNL1       -0.4612
     22 C         139.7191  149.2561  154.4073 C.ar    1  UNL1        0.1400
     23 C         139.0606  150.0893  155.4666 C.ar    1  UNL1        0.0369
     24 C         138.5628  151.4653  155.1368 C.ar    1  UNL1        0.0031
     25 C         138.7235  152.0081  153.7477 C.ar    1  UNL1        0.0002
     26 C         139.3820  151.1749  152.6884 C.ar    1  UNL1        0.0031
     27 C         139.8798  149.7989  153.0182 C.ar    1  UNL1        0.0369
     28 C         142.5155  139.1834  168.6136 C.3     1  UNL1        0.1538
     29 N         141.4717  139.9743  169.3449 N.ar    1  UNL1       -0.2449
     30 C         141.7285  141.0995  170.3030 C.ar    1  UNL1        0.0971
     31 C         140.4033  141.5994  170.7968 C.ar    1  UNL1        0.0427
     32 C         139.3274  140.7832  170.1440 C.ar    1  UNL1        0.1217
     33 N         139.9877  139.7788  169.2467 N.ar    1  UNL1       -0.1673
@<TRIPOS>BOND
     1    18    19    3
     2    19    13    1
     3    13    14   ar
     4    14    15   ar
     5    15     1    1
     6     1     2    2
     7     2     3    1
     8     3     4    2
     9     4     5    1
    10     5     6    1
    11     6     7    1
    12     7     8   ar
    13     8     9   ar
    14     9    28    1
    15    28    29    1
    16    29    30   ar
    17    30    31   ar
    18    31    32   ar
    19    32    33   ar
    20     9    10   ar
    21    10    11   ar
    22    11    12   ar
    23    15    16   ar
    24    16    17   ar
    25    18    20    1
    26    20    21    1
    27    21    22    1
    28    22    23   ar
    29    23    24   ar
    30    24    25   ar
    31    25    26   ar
    32    26    27   ar
    33    17    13   ar
    34    27    22   ar
    35     5     1    1
    36    12     7   ar
    37    12     4    1
    38    33    29   ar
@<TRIPOS>MOLECULE
*****
 33 38 0 0 0
SMALL
GASTEIGER

@<TRIPOS>ATOM
      1 C         139.7709  139.0942  160.7132 C.2     1  UNL1        0.0866
      2 N         138.3129  138.7582  160.6061 N.2     1  UNL1       -0.1523
      3 N         137.7329  138.7643  161.9895 N.2     1  UNL1       -0.1523
      4 C         138.8326  139.1041  162.9516 C.2     1  UNL1        0.0858
      5 C         140.0920  139.3080  162.1627 C.3     1  UNL1        0.0883
      6 C         141.1916  139.6477  163.1248 C.3     1  UNL1        0.0384
      7 C         140.6117  139.6539  164.5082 C.ar    1  UNL1       -0.0205
      8 C         141.2229  139.9220  165.8515 C.ar    1  UNL1       -0.0065
      9 C         140.3761  139.8542  167.0877 C.ar    1  UNL1        0.0018
     10 C         138.9181  139.5182  166.9806 C.ar    1  UNL1       -0.0023
     11 C         138.3070  139.2501  165.6373 C.ar    1  UNL1        0.0007
     12 C         139.1537  139.3179  164.4011 C.ar    1  UNL1        0.0117
     13 C         142.5644  139.9352  158.1531 C.ar    1  UNL1        0.0710
     14 C         141.8538  140.1930  159.4487 C.ar    1  UNL1        0.0165
     15 C         140.7379  139.1981  159.5713 C.ar    1  UNL1        0.0233
     16 C         140.7589  138.3254  158.3514 C.ar    1  UNL1        0.0373
     17 S         141.8877  138.7810  157.4749 S.2     1  UNL1       -0.0780
     18 C         144.9247  141.4603  157.1026 C.1     1  UNL1       -0.0388
     19 C         143.7445  140.6977  157.6278 C.1     1  UNL1       -0.0543
     20 C         146.1048  142.2228  156.5774 C.3     1  UNL1        0.2814
     21 O         147.2308  141.4934  155.9065 O.3     1  UNL1       -0.4612
     22 C         148.0952  142.2041  154.9076 C.ar    1  UNL1        0.1400
     23 C         147.5659  143.4013  154.1752 C.ar    1  UNL1        0.0369
     24 C         148.4303  144.1120  153.1763 C.ar    1  UNL1        0.0031
     25 C         149.8240  143.6256  152.9099 C.ar    1  UNL1        0.0002
     26 C         150.3533  142.4283  153.6424 C.ar    1  UNL1        0.0031
     27 C         149.4889  141.7176  154.6413 C.ar    1  UNL1        0.0369
     28 C         140.9873  140.1223  168.4311 C.3     1  UNL1        0.1538
     29 N         140.6537  141.3854  169.1682 N.ar    1  UNL1       -0.2449
     30 C         141.2255  142.7444  168.8923 C.ar    1  UNL1        0.0971
     31 C         140.6150  143.7103  169.8642 C.ar    1  UNL1        0.0427
     32 C         139.6658  142.9481  170.7407 C.ar    1  UNL1        0.1217
     33 N         139.6897  141.5113  170.3105 N.ar    1  UNL1       -0.1673
@<TRIPOS>BOND
     1    18    19    3
     2    19    13    1
     3    13    14   ar
     4    14    15   ar
     5    15     1    1
     6     1     2    2
     7     2     3    1
     8     3     4    2
     9     4     5    1
    10     5     6    1
    11     6     7    1
    12     7     8   ar
    13     8     9   ar
    14     9    28    1
    15    28    29    1
    16    29    30   ar
    17    30    31   ar
    18    31    32   ar
    19    32    33   ar
    20     9    10   ar
    21    10    11   ar
    22    11    12   ar
    23    15    16   ar
    24    16    17   ar
    25    18    20    1
    26    20    21    1
    27    21    22    1
    28    22    23   ar
    29    23    24   ar
    30    24    25   ar
    31    25    26   ar
    32    26    27   ar
    33    17    13   ar
    34    27    22   ar
    35     5     1    1
    36    12     7   ar
    37    12     4    1
    38    33    29   ar
