@<TRIPOS>MOLECULE
*****
 39 42 0 0 0
SMALL
GASTEIGER

@<TRIPOS>ATOM
      1 N         139.0602  143.4464  158.6702 N.am    1  UNL1       -0.2531
      2 C         139.0168  142.7126  159.9777 C.2     1  UNL1        0.3135
      3 O         138.5942  141.2739  160.0167 O.2     1  UNL1       -0.2518
      4 N         139.3960  143.4175  161.2463 N.am    1  UNL1       -0.2282
      5 C         139.8186  144.8562  161.2074 C.3     1  UNL1        0.1015
      6 C         140.1977  145.5611  162.4760 C.3     1  UNL1        0.0268
      7 C         140.1542  144.8273  163.7835 C.3     1  UNL1        0.0310
      8 C         139.7316  143.3886  163.8225 C.ar    1  UNL1        0.0096
      9 C         139.6882  142.6548  165.1300 C.ar    1  UNL1       -0.0028
     10 C         139.2656  141.2161  165.1689 C.ar    1  UNL1        0.0146
     11 CA        138.8864  140.5112  163.9003 C.ar    1  UNL1        0.1221
     12 N         138.9299  141.2450  162.5928 N.ar    1  UNL1       -0.2275
     13 C         139.3525  142.6837  162.5539 C.ar    1  UNL1        0.1345
     14 H         139.3376  144.3906  158.6446 H       1  UNL1        0.1578
     15 C         136.8557  141.8249  155.7961 C.ar    1  UNL1        0.1525
     16 C         137.2348  142.5298  157.0646 C.ar    1  UNL1        0.0721
     17 C         138.6811  142.7415  157.4016 C.ar    1  UNL1        0.1384
     18 N         139.7482  142.2483  156.4699 N.ar    1  UNL1       -0.2281
     19 C         139.3690  141.5434  155.2012 C.ar    1  UNL1        0.1136
     20 C         137.9228  141.3317  154.8644 C.ar    1  UNL1        0.1215
     21 C         137.5436  140.6268  153.5958 C.1     1  UNL1        0.1051
     22 N         137.1644  139.9219  152.3271 N.1     1  UNL1       -0.1907
     23 O         135.4094  141.6132  155.4592 O.3     1  UNL1       -0.4719
     24 C         134.7125  140.3599  155.8990 C.3     1  UNL1        0.2373
     25 C         133.2591  140.3999  156.2679 C.3     1  UNL1        0.1894
     26 C         132.9827  138.5983  158.1194 C.3     1  UNL1        0.1743
     27 O         132.8256  140.0147  157.6513 O.3     1  UNL1       -0.3471
     28 C         138.4638  139.0725  163.9393 C.2     1  UNL1        0.2529
     29 O         138.3450  138.2909  162.6644 O.2     1  UNL1       -0.2815
     30 C         139.2221  140.4823  166.4765 C.3     1  UNL1        0.1008
     31 N         140.4987  140.0819  167.1546 N.3     1  UNL1       -0.2666
     32 C         140.7177  140.4182  168.5998 C.3     1  UNL1        0.0882
     33 C         141.9944  140.0178  169.2780 C.3     1  UNL1        0.0702
     34 C         142.2134  140.3541  170.7233 C.3     1  UNL1        0.0186
     35 N         143.0520  139.2810  168.5108 N.3     1  UNL1       -0.2974
     36 C         142.8330  138.9446  167.0655 C.3     1  UNL1        0.0702
     37 C         143.8906  138.2078  166.2983 C.3     1  UNL1        0.0186
     38 C         141.5564  139.3451  166.3874 C.3     1  UNL1        0.0882
     39 H         143.2084  138.3986  168.9981 H       1  UNL1        0.1232
@<TRIPOS>BOND
     1    26    27    1
     2    27    25    1
     3    25    24    1
     4    24    23    1
     5    23    15    1
     6    15    16   ar
     7    16    17   ar
     8    17     1    1
     9     1     2   am
    10     2     3    2
    11     2     4   am
    12     4     5    1
    13     5     6    1
    14     6     7    1
    15     7     8    1
    16     8     9   ar
    17     9    10   ar
    18    10    30    1
    19    30    31    1
    20    31    32    1
    21    32    33    1
    22    33    34    1
    23    33    35    1
    24    35    36    1
    25    36    37    1
    26    36    38    1
    27    10    11   ar
    28    11    28    1
    29    28    29    2
    30    11    12   ar
    31    12    13   ar
    32    17    18   ar
    33    18    19   ar
    34    19    20   ar
    35    20    21    1
    36    21    22    3
    37    20    15   ar
    38    13     4    1
    39    13     8   ar
    40    38    31    1
    41     1    14    1
    42    35    39    1
@<TRIPOS>MOLECULE
*****
 39 42 0 0 0
SMALL
GASTEIGER

@<TRIPOS>ATOM
      1 N         140.7366  139.1724  163.2640 N.am    1  UNL1       -0.2531
      2 C         140.8676  140.3169  162.3033 C.2     1  UNL1        0.3135
      3 O         140.6724  141.7247  162.7828 O.2     1  UNL1       -0.2518
      4 N         141.1937  140.0535  160.8630 N.am    1  UNL1       -0.2282
      5 C         141.3889  138.6457  160.3835 C.3     1  UNL1        0.1015
      6 C         141.7150  138.3824  158.9432 C.3     1  UNL1        0.0268
      7 C         141.8459  139.5269  157.9825 C.3     1  UNL1        0.0310
      8 C         141.6508  140.9347  158.4620 C.ar    1  UNL1        0.0096
      9 C         141.7817  142.0792  157.5013 C.ar    1  UNL1       -0.0028
     10 C         141.5866  143.4870  157.9808 C.ar    1  UNL1        0.0146
     11 CA        141.2605  143.7503  159.4211 C.ar    1  UNL1        0.1221
     12 N         141.1295  142.6058  160.3818 N.ar    1  UNL1       -0.2275
     13 C         141.3247  141.1980  159.9022 C.ar    1  UNL1        0.1345
     14 H         140.8647  138.2484  162.9492 H       1  UNL1        0.1578
     15 C         141.1606  140.1511  167.0866 C.ar    1  UNL1        0.1525
     16 C         141.4867  139.8878  165.6464 C.ar    1  UNL1        0.0721
     17 C         140.4105  139.4357  164.7042 C.ar    1  UNL1        0.1384
     18 N         139.0083  139.2469  165.2023 N.ar    1  UNL1       -0.2281
     19 C         138.6822  139.5102  166.6426 C.ar    1  UNL1        0.1136
     20 C         139.7583  139.9623  167.5847 C.ar    1  UNL1        0.1215
     21 C         139.4322  140.2256  169.0249 C.1     1  UNL1        0.1051
     22 N         139.1061  140.4889  170.4652 N.1     1  UNL1       -0.1907
     23 O         142.2367  140.6032  168.0286 O.3     1  UNL1       -0.4719
     24 C         142.5418  142.0647  168.1729 C.3     1  UNL1        0.2373
     25 C         142.8731  142.6322  169.5214 C.3     1  UNL1        0.1894
     26 C         140.5639  143.7935  169.7842 C.3     1  UNL1        0.1743
     27 O         141.7806  143.1674  170.3988 O.3     1  UNL1       -0.3471
     28 C         141.0653  145.1581  159.9006 C.2     1  UNL1        0.2529
     29 O         139.6968  145.7722  159.8871 O.2     1  UNL1       -0.2815
     30 C         141.7175  144.6315  157.0201 C.3     1  UNL1        0.1008
     31 N         140.4980  145.1918  156.3503 N.3     1  UNL1       -0.2666
     32 C         139.3365  144.2961  156.0365 C.3     1  UNL1        0.0882
     33 C         138.1168  144.8564  155.3667 C.3     1  UNL1        0.0702
     34 C         136.9553  143.9607  155.0528 C.3     1  UNL1        0.0186
     35 N         138.0587  146.3124  155.0108 N.3     1  UNL1       -0.2974
     36 C         139.2203  147.2081  155.3247 C.3     1  UNL1        0.0702
     37 C         139.1622  148.6641  154.9689 C.3     1  UNL1        0.0186
     38 C         140.4399  146.6478  155.9945 C.3     1  UNL1        0.0882
     39 H         137.2483  146.7013  155.4929 H       1  UNL1        0.1232
@<TRIPOS>BOND
     1    26    27    1
     2    27    25    1
     3    25    24    1
     4    24    23    1
     5    23    15    1
     6    15    16   ar
     7    16    17   ar
     8    17     1    1
     9     1     2   am
    10     2     3    2
    11     2     4   am
    12     4     5    1
    13     5     6    1
    14     6     7    1
    15     7     8    1
    16     8     9   ar
    17     9    10   ar
    18    10    30    1
    19    30    31    1
    20    31    32    1
    21    32    33    1
    22    33    34    1
    23    33    35    1
    24    35    36    1
    25    36    37    1
    26    36    38    1
    27    10    11   ar
    28    11    28    1
    29    28    29    2
    30    11    12   ar
    31    12    13   ar
    32    17    18   ar
    33    18    19   ar
    34    19    20   ar
    35    20    21    1
    36    21    22    3
    37    20    15   ar
    38    13     4    1
    39    13     8   ar
    40    38    31    1
    41     1    14    1
    42    35    39    1
@<TRIPOS>MOLECULE
*****
 39 42 0 0 0
SMALL
GASTEIGER

@<TRIPOS>ATOM
      1 N         139.4055  139.6096  165.3340 N.am    1  UNL1       -0.2531
      2 C         140.0178  140.2781  164.1390 C.2     1  UNL1        0.3135
      3 O         140.8837  141.4896  164.3190 O.2     1  UNL1       -0.2518
      4 N         139.7642  139.7350  162.7639 N.am    1  UNL1       -0.2282
      5 C         138.8984  138.5235  162.5839 C.3     1  UNL1        0.1015
      6 C         138.6448  137.9805  161.2089 C.3     1  UNL1        0.0268
      7 C         139.2571  138.6490  160.0138 C.3     1  UNL1        0.0310
      8 C         140.1229  139.8605  160.1938 C.ar    1  UNL1        0.0096
      9 C         140.7352  140.5291  158.9987 C.ar    1  UNL1       -0.0028
     10 C         141.6011  141.7406  159.1787 C.ar    1  UNL1        0.0146
     11 CA        141.8547  142.2837  160.5538 C.ar    1  UNL1        0.1221
     12 N         141.2424  141.6151  161.7489 N.ar    1  UNL1       -0.2275
     13 C         140.3765  140.4035  161.5688 C.ar    1  UNL1        0.1345
     14 H         138.8373  138.8144  165.2159 H       1  UNL1        0.1578
     15 C         139.1464  140.1576  169.2561 C.ar    1  UNL1        0.1525
     16 C         138.8928  139.6145  167.8810 C.ar    1  UNL1        0.0721
     17 C         139.6591  140.1526  166.7091 C.ar    1  UNL1        0.1384
     18 N         140.6789  141.2336  166.9123 N.ar    1  UNL1       -0.2281
     19 C         140.9325  141.7766  168.2874 C.ar    1  UNL1        0.1136
     20 C         140.1662  141.2386  169.4593 C.ar    1  UNL1        0.1215
     21 C         140.4198  141.7816  170.8343 C.1     1  UNL1        0.1051
     22 N         140.6733  142.3247  172.2094 N.1     1  UNL1       -0.1907
     23 O         138.3801  139.6195  170.4279 O.3     1  UNL1       -0.4719
     24 C         136.9854  139.1012  170.2380 C.3     1  UNL1        0.2373
     25 C         136.2830  138.4068  171.3670 C.3     1  UNL1        0.1894
     26 C         136.1126  136.3814  172.9852 C.3     1  UNL1        0.1743
     27 O         136.6613  137.0027  171.7351 O.3     1  UNL1       -0.3471
     28 C         142.7205  143.4952  160.7338 C.2     1  UNL1        0.2529
     29 O         142.0927  144.8415  160.9427 O.2     1  UNL1       -0.2815
     30 C         142.2134  142.4091  157.9836 C.3     1  UNL1        0.1008
     31 N         143.4899  141.8799  157.4002 N.3     1  UNL1       -0.2666
     32 C         143.4795  140.6110  156.6003 C.3     1  UNL1        0.0882
     33 C         144.7560  140.0818  156.0169 C.3     1  UNL1        0.0702
     34 C         144.7457  138.8129  155.2170 C.3     1  UNL1        0.0186
     35 N         146.0429  140.8214  156.2333 N.3     1  UNL1       -0.2974
     36 C         146.0532  142.0903  157.0333 C.3     1  UNL1        0.0702
     37 C         147.3401  142.8300  157.2497 C.3     1  UNL1        0.0186
     38 C         144.7767  142.6196  157.6167 C.3     1  UNL1        0.0882
     39 H         146.4086  141.0526  155.3096 H       1  UNL1        0.1232
@<TRIPOS>BOND
     1    26    27    1
     2    27    25    1
     3    25    24    1
     4    24    23    1
     5    23    15    1
     6    15    16   ar
     7    16    17   ar
     8    17     1    1
     9     1     2   am
    10     2     3    2
    11     2     4   am
    12     4     5    1
    13     5     6    1
    14     6     7    1
    15     7     8    1
    16     8     9   ar
    17     9    10   ar
    18    10    30    1
    19    30    31    1
    20    31    32    1
    21    32    33    1
    22    33    34    1
    23    33    35    1
    24    35    36    1
    25    36    37    1
    26    36    38    1
    27    10    11   ar
    28    11    28    1
    29    28    29    2
    30    11    12   ar
    31    12    13   ar
    32    17    18   ar
    33    18    19   ar
    34    19    20   ar
    35    20    21    1
    36    21    22    3
    37    20    15   ar
    38    13     4    1
    39    13     8   ar
    40    38    31    1
    41     1    14    1
    42    35    39    1
@<TRIPOS>MOLECULE
*****
 39 42 0 0 0
SMALL
GASTEIGER

@<TRIPOS>ATOM
      1 N         140.3463  142.5705  164.4582 N.am    1  UNL1       -0.2531
      2 C         140.8939  141.7412  163.3346 C.2     1  UNL1        0.3135
      3 O         141.3477  140.3350  163.5924 O.2     1  UNL1       -0.2518
      4 N         140.9877  142.3183  161.9532 N.am    1  UNL1       -0.2282
      5 C         140.5339  143.7246  161.6954 C.3     1  UNL1        0.1015
      6 C         140.6277  144.3016  160.3141 C.3     1  UNL1        0.0268
      7 C         141.1753  143.4724  159.1905 C.3     1  UNL1        0.0310
      8 C         141.6291  142.0661  159.4482 C.ar    1  UNL1        0.0096
      9 C         142.1768  141.2369  158.3246 C.ar    1  UNL1       -0.0028
     10 C         142.6306  139.8307  158.5824 C.ar    1  UNL1        0.0146
     11 CA        142.5368  139.2536  159.9638 C.ar    1  UNL1        0.1221
     12 N         141.9892  140.0828  161.0874 N.ar    1  UNL1       -0.2275
     13 C         141.5353  141.4891  160.8296 C.ar    1  UNL1        0.1345
     14 H         140.0484  143.4934  164.2890 H       1  UNL1        0.1578
     15 C         139.3046  140.2093  167.4732 C.ar    1  UNL1        0.1525
     16 C         139.3984  140.7863  166.0918 C.ar    1  UNL1        0.0721
     17 C         140.2525  141.9934  165.8396 C.ar    1  UNL1        0.1384
     18 N         141.0127  142.6235  166.9688 N.ar    1  UNL1       -0.2281
     19 C         140.9188  142.0464  168.3502 C.ar    1  UNL1        0.1136
     20 C         140.0648  140.8393  168.6024 C.ar    1  UNL1        0.1215
     21 C         139.9710  140.2623  169.9837 C.1     1  UNL1        0.1051
     22 N         139.8772  139.6852  171.3651 N.1     1  UNL1       -0.1907
     23 O         138.4506  139.0023  167.7253 O.3     1  UNL1       -0.4719
     24 C         137.7409  138.3342  166.5851 C.3     1  UNL1        0.2373
     25 C         138.4284  137.2542  165.8034 C.3     1  UNL1        0.1894
     26 C         138.9076  137.6986  163.2889 C.3     1  UNL1        0.1743
     27 O         139.3870  137.6157  164.7078 O.3     1  UNL1       -0.3471
     28 C         142.9907  137.8474  160.2216 C.2     1  UNL1        0.2529
     29 O         144.0278  137.5743  161.2703 O.2     1  UNL1       -0.2815
     30 C         143.1782  139.0015  157.4588 C.3     1  UNL1        0.1008
     31 N         142.3467  137.9055  156.8611 N.3     1  UNL1       -0.2666
     32 C         142.8946  136.5120  156.7719 C.3     1  UNL1        0.0882
     33 C         142.0630  135.4160  156.1741 C.3     1  UNL1        0.0702
     34 C         142.6109  134.0225  156.0849 C.3     1  UNL1        0.0186
     35 N         140.6836  135.7135  155.6656 N.3     1  UNL1       -0.2974
     36 C         140.1357  137.1070  155.7548 C.3     1  UNL1        0.0702
     37 C         138.7562  137.4046  155.2463 C.3     1  UNL1        0.0186
     38 C         140.9672  138.2030  156.3525 C.3     1  UNL1        0.0882
     39 H         140.0429  135.1115  156.1828 H       1  UNL1        0.1232
@<TRIPOS>BOND
     1    26    27    1
     2    27    25    1
     3    25    24    1
     4    24    23    1
     5    23    15    1
     6    15    16   ar
     7    16    17   ar
     8    17     1    1
     9     1     2   am
    10     2     3    2
    11     2     4   am
    12     4     5    1
    13     5     6    1
    14     6     7    1
    15     7     8    1
    16     8     9   ar
    17     9    10   ar
    18    10    30    1
    19    30    31    1
    20    31    32    1
    21    32    33    1
    22    33    34    1
    23    33    35    1
    24    35    36    1
    25    36    37    1
    26    36    38    1
    27    10    11   ar
    28    11    28    1
    29    28    29    2
    30    11    12   ar
    31    12    13   ar
    32    17    18   ar
    33    18    19   ar
    34    19    20   ar
    35    20    21    1
    36    21    22    3
    37    20    15   ar
    38    13     4    1
    39    13     8   ar
    40    38    31    1
    41     1    14    1
    42    35    39    1
@<TRIPOS>MOLECULE
*****
 39 42 0 0 0
SMALL
GASTEIGER

@<TRIPOS>ATOM
      1 N         140.0217  142.4310  164.2527 N.am    1  UNL1       -0.2531
      2 C         140.6227  141.5986  163.1591 C.2     1  UNL1        0.3135
      3 O         141.1260  140.2176  163.4581 O.2     1  UNL1       -0.2518
      4 N         140.7204  142.1473  161.7664 N.am    1  UNL1       -0.2282
      5 C         140.2171  143.5283  161.4674 C.3     1  UNL1        0.1015
      6 C         140.3147  144.0769  160.0748 C.3     1  UNL1        0.0268
      7 C         140.9157  143.2445  158.9812 C.3     1  UNL1        0.0310
      8 C         141.4190  141.8635  159.2802 C.ar    1  UNL1        0.0096
      9 C         142.0200  141.0311  158.1866 C.ar    1  UNL1       -0.0028
     10 C         142.5233  139.6501  158.4856 C.ar    1  UNL1        0.0146
     11 CA        142.4256  139.1014  159.8783 C.ar    1  UNL1        0.1221
     12 N         141.8246  139.9338  160.9719 N.ar    1  UNL1       -0.2275
     13 C         141.3213  141.3149  160.6728 C.ar    1  UNL1        0.1345
     14 H         139.6914  143.3374  164.0564 H       1  UNL1        0.1578
     15 C         140.3182  142.1451  168.1999 C.ar    1  UNL1        0.1525
     16 C         140.4158  142.6937  166.8073 C.ar    1  UNL1        0.0721
     17 C         139.9240  141.8824  165.6453 C.ar    1  UNL1        0.1384
     18 N         139.3346  140.5225  165.8761 N.ar    1  UNL1       -0.2281
     19 C         139.2369  139.9739  167.2688 C.ar    1  UNL1        0.1136
     20 C         139.7287  140.7852  168.4306 C.ar    1  UNL1        0.1215
     21 C         139.6310  140.2366  169.8233 C.1     1  UNL1        0.1051
     22 N         139.5333  139.6879  171.2159 N.1     1  UNL1       -0.1907
     23 O         140.8099  142.9563  169.3617 O.3     1  UNL1       -0.4719
     24 C         142.2344  142.8308  169.8147 C.3     1  UNL1        0.2373
     25 C         143.1919  141.9673  169.0481 C.3     1  UNL1        0.1894
     26 C         143.0315  139.9901  170.7258 C.3     1  UNL1        0.1743
     27 O         143.2700  140.4970  169.3343 O.3     1  UNL1       -0.3471
     28 C         142.9289  137.7204  160.1773 C.2     1  UNL1        0.2529
     29 O         144.0191  137.5220  161.1884 O.2     1  UNL1       -0.2815
     30 C         143.1242  138.8177  157.3920 C.3     1  UNL1        0.1008
     31 N         142.3260  137.7132  156.7654 N.3     1  UNL1       -0.2666
     32 C         142.9090  136.3355  156.6560 C.3     1  UNL1        0.0882
     33 C         142.1107  135.2308  156.0294 C.3     1  UNL1        0.0702
     34 C         142.6937  133.8531  155.9200 C.3     1  UNL1        0.0186
     35 N         140.7295  135.5040  155.5121 N.3     1  UNL1       -0.2974
     36 C         140.1465  136.8818  155.6215 C.3     1  UNL1        0.0702
     37 C         138.7653  137.1549  155.1042 C.3     1  UNL1        0.0186
     38 C         140.9447  137.9863  156.2481 C.3     1  UNL1        0.0882
     39 H         140.0987  134.8769  156.0114 H       1  UNL1        0.1232
@<TRIPOS>BOND
     1    26    27    1
     2    27    25    1
     3    25    24    1
     4    24    23    1
     5    23    15    1
     6    15    16   ar
     7    16    17   ar
     8    17     1    1
     9     1     2   am
    10     2     3    2
    11     2     4   am
    12     4     5    1
    13     5     6    1
    14     6     7    1
    15     7     8    1
    16     8     9   ar
    17     9    10   ar
    18    10    30    1
    19    30    31    1
    20    31    32    1
    21    32    33    1
    22    33    34    1
    23    33    35    1
    24    35    36    1
    25    36    37    1
    26    36    38    1
    27    10    11   ar
    28    11    28    1
    29    28    29    2
    30    11    12   ar
    31    12    13   ar
    32    17    18   ar
    33    18    19   ar
    34    19    20   ar
    35    20    21    1
    36    21    22    3
    37    20    15   ar
    38    13     4    1
    39    13     8   ar
    40    38    31    1
    41     1    14    1
    42    35    39    1
@<TRIPOS>MOLECULE
*****
 39 42 0 0 0
SMALL
GASTEIGER

@<TRIPOS>ATOM
      1 N         143.6941  136.8251  154.5862 N.am    1  UNL1       -0.2531
      2 C         143.7087  137.7287  155.7834 C.2     1  UNL1        0.3135
      3 O         143.0600  137.2893  157.0625 O.2     1  UNL1       -0.2518
      4 N         144.3719  139.0716  155.7015 N.am    1  UNL1       -0.2282
      5 C         145.0206  139.5110  154.4224 C.3     1  UNL1        0.1015
      6 C         145.6838  140.8539  154.3405 C.3     1  UNL1        0.0268
      7 C         145.6983  141.7574  155.5378 C.3     1  UNL1        0.0310
      8 C         145.0497  141.3181  156.8169 C.ar    1  UNL1        0.0096
      9 C         145.0642  142.2216  158.0141 C.ar    1  UNL1       -0.0028
     10 C         144.4156  141.7823  159.2932 C.ar    1  UNL1        0.0146
     11 CA        143.7523  140.4393  159.3751 C.ar    1  UNL1        0.1221
     12 N         143.7378  139.5358  158.1779 N.ar    1  UNL1       -0.2275
     13 C         144.3865  139.9752  156.8987 C.ar    1  UNL1        0.1345
     14 H         144.1199  137.1135  153.7467 H       1  UNL1        0.1578
     15 C         142.5976  133.2608  155.9439 C.ar    1  UNL1        0.1525
     16 C         143.2608  134.6037  155.8620 C.ar    1  UNL1        0.0721
     17 C         143.0309  135.4822  154.6681 C.ar    1  UNL1        0.1384
     18 N         142.1378  135.0178  153.5560 N.ar    1  UNL1       -0.2281
     19 C         141.4746  133.6748  153.6380 C.ar    1  UNL1        0.1136
     20 C         141.7045  132.7964  154.8319 C.ar    1  UNL1        0.1215
     21 C         141.0413  131.4535  154.9137 C.1     1  UNL1        0.1051
     22 N         140.3781  130.1105  154.9956 N.1     1  UNL1       -0.1907
     23 O         142.8276  132.3824  157.1378 O.3     1  UNL1       -0.4719
     24 C         144.1364  131.6685  157.3027 C.3     1  UNL1        0.2373
     25 C         144.8578  131.1371  156.0996 C.3     1  UNL1        0.1894
     26 C         144.3705  129.9741  153.8281 C.3     1  UNL1        0.1743
     27 O         144.2805  129.9894  155.3253 O.3     1  UNL1       -0.3471
     28 C         143.1037  140.0000  160.6543 C.2     1  UNL1        0.2529
     29 O         143.8788  139.1852  161.6470 O.2     1  UNL1       -0.2815
     30 C         144.4301  142.6858  160.4905 C.3     1  UNL1        0.1008
     31 N         143.2633  143.5879  160.7635 N.3     1  UNL1       -0.2666
     32 C         142.3899  144.0472  159.6338 C.3     1  UNL1        0.0882
     33 C         141.2230  144.9494  159.9068 C.3     1  UNL1        0.0702
     34 C         140.3497  145.4086  158.7770 C.3     1  UNL1        0.0186
     35 N         140.9294  145.3922  161.3095 N.3     1  UNL1       -0.2974
     36 C         141.8028  144.9328  162.4393 C.3     1  UNL1        0.0702
     37 C         141.5093  145.3756  163.8421 C.3     1  UNL1        0.0186
     38 C         142.9697  144.0307  162.1663 C.3     1  UNL1        0.0882
     39 H         139.9821  145.0810  161.5244 H       1  UNL1        0.1232
@<TRIPOS>BOND
     1    26    27    1
     2    27    25    1
     3    25    24    1
     4    24    23    1
     5    23    15    1
     6    15    16   ar
     7    16    17   ar
     8    17     1    1
     9     1     2   am
    10     2     3    2
    11     2     4   am
    12     4     5    1
    13     5     6    1
    14     6     7    1
    15     7     8    1
    16     8     9   ar
    17     9    10   ar
    18    10    30    1
    19    30    31    1
    20    31    32    1
    21    32    33    1
    22    33    34    1
    23    33    35    1
    24    35    36    1
    25    36    37    1
    26    36    38    1
    27    10    11   ar
    28    11    28    1
    29    28    29    2
    30    11    12   ar
    31    12    13   ar
    32    17    18   ar
    33    18    19   ar
    34    19    20   ar
    35    20    21    1
    36    21    22    3
    37    20    15   ar
    38    13     4    1
    39    13     8   ar
    40    38    31    1
    41     1    14    1
    42    35    39    1
@<TRIPOS>MOLECULE
*****
 39 42 0 0 0
SMALL
GASTEIGER

@<TRIPOS>ATOM
      1 N         138.3333  140.3166  163.5993 N.am    1  UNL1       -0.2531
      2 C         139.3121  139.7255  162.6285 C.2     1  UNL1        0.3135
      3 O         140.5364  139.0210  163.1331 O.2     1  UNL1       -0.2518
      4 N         139.0665  139.8388  161.1531 N.am    1  UNL1       -0.2282
      5 C         137.8421  140.5432  160.6485 C.3     1  UNL1        0.1015
      6 C         137.5966  140.6565  159.1731 C.3     1  UNL1        0.0268
      7 C         138.5754  140.0654  158.2023 C.3     1  UNL1        0.0310
      8 C         139.7998  139.3609  158.7069 C.ar    1  UNL1        0.0096
      9 C         140.7786  138.7698  157.7361 C.ar    1  UNL1       -0.0028
     10 C         142.0029  138.0654  158.2407 C.ar    1  UNL1        0.0146
     11 CA        142.2485  137.9520  159.7161 C.ar    1  UNL1        0.1221
     12 N         141.2697  138.5432  160.6869 N.ar    1  UNL1       -0.2275
     13 C         140.0453  139.2476  160.1823 C.ar    1  UNL1        0.1345
     14 H         137.5297  140.7790  163.2681 H       1  UNL1        0.1578
     15 C         139.7887  141.0209  167.2236 C.ar    1  UNL1        0.1525
     16 C         139.5431  141.1342  165.7482 C.ar    1  UNL1        0.0721
     17 C         138.5788  140.2033  165.0747 C.ar    1  UNL1        0.1384
     18 N         137.8600  139.1592  165.8767 N.ar    1  UNL1       -0.2281
     19 C         138.1056  139.0459  167.3522 C.ar    1  UNL1        0.1136
     20 C         139.0699  139.9768  168.0256 C.ar    1  UNL1        0.1215
     21 C         139.3155  139.8635  169.5010 C.1     1  UNL1        0.1051
     22 N         139.5610  139.7502  170.9765 N.1     1  UNL1       -0.1907
     23 O         140.7530  141.9518  167.8971 O.3     1  UNL1       -0.4719
     24 C         142.2293  141.7725  167.7015 C.3     1  UNL1        0.2373
     25 C         142.8328  140.4005  167.7628 C.3     1  UNL1        0.1894
     26 C         143.0686  140.3232  170.3490 C.3     1  UNL1        0.1743
     27 O         142.8058  139.6260  169.0471 O.3     1  UNL1       -0.3471
     28 C         143.4729  137.2476  160.2207 C.2     1  UNL1        0.2529
     29 O         144.1117  137.6819  161.5066 O.2     1  UNL1       -0.2815
     30 C         142.9818  137.4742  157.2699 C.3     1  UNL1        0.1008
     31 N         142.6302  136.2254  156.5170 N.3     1  UNL1       -0.2666
     32 C         141.9217  136.3191  155.1982 C.3     1  UNL1        0.0882
     33 C         141.5701  135.0703  154.4453 C.3     1  UNL1        0.0702
     34 C         140.8615  135.1640  153.1266 C.3     1  UNL1        0.0186
     35 N         141.9270  133.7278  155.0112 N.3     1  UNL1       -0.2974
     36 C         142.6356  133.6341  156.3300 C.3     1  UNL1        0.0702
     37 C         142.9926  132.2916  156.8958 C.3     1  UNL1        0.0186
     38 C         142.9872  134.8829  157.0828 C.3     1  UNL1        0.0882
     39 H         142.5231  133.2673  154.3233 H       1  UNL1        0.1232
@<TRIPOS>BOND
     1    26    27    1
     2    27    25    1
     3    25    24    1
     4    24    23    1
     5    23    15    1
     6    15    16   ar
     7    16    17   ar
     8    17     1    1
     9     1     2   am
    10     2     3    2
    11     2     4   am
    12     4     5    1
    13     5     6    1
    14     6     7    1
    15     7     8    1
    16     8     9   ar
    17     9    10   ar
    18    10    30    1
    19    30    31    1
    20    31    32    1
    21    32    33    1
    22    33    34    1
    23    33    35    1
    24    35    36    1
    25    36    37    1
    26    36    38    1
    27    10    11   ar
    28    11    28    1
    29    28    29    2
    30    11    12   ar
    31    12    13   ar
    32    17    18   ar
    33    18    19   ar
    34    19    20   ar
    35    20    21    1
    36    21    22    3
    37    20    15   ar
    38    13     4    1
    39    13     8   ar
    40    38    31    1
    41     1    14    1
    42    35    39    1
@<TRIPOS>MOLECULE
*****
 39 42 0 0 0
SMALL
GASTEIGER

@<TRIPOS>ATOM
      1 N         141.3977  141.9214  164.8997 N.am    1  UNL1       -0.2531
      2 C         141.5954  142.3184  163.4667 C.2     1  UNL1        0.3135
      3 O         142.5607  141.5600  162.6048 O.2     1  UNL1       -0.2518
      4 N         140.8278  143.4738  162.8958 N.am    1  UNL1       -0.2282
      5 C         139.8625  144.2321  163.7578 C.3     1  UNL1        0.1015
      6 C         139.0950  145.3875  163.1868 C.3     1  UNL1        0.0268
      7 C         139.2927  145.7844  161.7539 C.3     1  UNL1        0.0310
      8 C         140.2580  145.0261  160.8919 C.ar    1  UNL1        0.0096
      9 C         140.4558  145.4231  159.4590 C.ar    1  UNL1       -0.0028
     10 C         141.4211  144.6647  158.5970 C.ar    1  UNL1        0.0146
     11 CA        142.1887  143.5093  159.1679 C.ar    1  UNL1        0.1221
     12 N         141.9910  143.1123  160.6009 N.ar    1  UNL1       -0.2275
     13 C         141.0256  143.8708  161.4629 C.ar    1  UNL1        0.1345
     14 H         140.7641  142.4191  165.4654 H       1  UNL1        0.1578
     15 C         142.9143  139.3551  167.5196 C.ar    1  UNL1        0.1525
     16 C         142.1468  140.5105  166.9486 C.ar    1  UNL1        0.0721
     17 C         142.1652  140.7661  165.4706 C.ar    1  UNL1        0.1384
     18 N         142.9512  139.8663  164.5637 N.ar    1  UNL1       -0.2281
     19 C         143.7188  138.7109  165.1347 C.ar    1  UNL1        0.1136
     20 C         143.7003  138.4554  166.6126 C.ar    1  UNL1        0.1215
     21 C         144.4679  137.3000  167.1836 C.1     1  UNL1        0.1051
     22 N         145.2354  136.1446  167.7545 N.1     1  UNL1       -0.1907
     23 O         142.8959  139.0996  168.9975 O.3     1  UNL1       -0.4719
     24 C         142.7508  140.2451  169.9550 C.3     1  UNL1        0.2373
     25 C         141.5068  140.3779  170.7826 C.3     1  UNL1        0.1894
     26 C         139.2125  140.3467  169.5639 C.3     1  UNL1        0.1743
     27 O         140.2583  139.6492  170.3823 O.3     1  UNL1       -0.3471
     28 C         143.1540  142.7510  158.3060 C.2     1  UNL1        0.2529
     29 O         142.6636  141.6308  157.4372 O.2     1  UNL1       -0.2815
     30 C         141.6189  145.0617  157.1641 C.3     1  UNL1        0.1008
     31 N         140.4549  145.5497  156.3535 N.3     1  UNL1       -0.2666
     32 C         140.4239  146.9670  155.8635 C.3     1  UNL1        0.0882
     33 C         139.2599  147.4551  155.0529 C.3     1  UNL1        0.0702
     34 C         139.2289  148.8724  154.5629 C.3     1  UNL1        0.0186
     35 N         138.1270  146.5258  154.7324 N.3     1  UNL1       -0.2974
     36 C         138.1580  145.1084  155.2224 C.3     1  UNL1        0.0702
     37 C         137.0251  144.1790  154.9019 C.3     1  UNL1        0.0186
     38 C         139.3220  144.6204  156.0330 C.3     1  UNL1        0.0882
     39 H         138.0588  146.4843  153.7155 H       1  UNL1        0.1232
@<TRIPOS>BOND
     1    26    27    1
     2    27    25    1
     3    25    24    1
     4    24    23    1
     5    23    15    1
     6    15    16   ar
     7    16    17   ar
     8    17     1    1
     9     1     2   am
    10     2     3    2
    11     2     4   am
    12     4     5    1
    13     5     6    1
    14     6     7    1
    15     7     8    1
    16     8     9   ar
    17     9    10   ar
    18    10    30    1
    19    30    31    1
    20    31    32    1
    21    32    33    1
    22    33    34    1
    23    33    35    1
    24    35    36    1
    25    36    37    1
    26    36    38    1
    27    10    11   ar
    28    11    28    1
    29    28    29    2
    30    11    12   ar
    31    12    13   ar
    32    17    18   ar
    33    18    19   ar
    34    19    20   ar
    35    20    21    1
    36    21    22    3
    37    20    15   ar
    38    13     4    1
    39    13     8   ar
    40    38    31    1
    41     1    14    1
    42    35    39    1
@<TRIPOS>MOLECULE
*****
 39 42 0 0 0
SMALL
GASTEIGER

@<TRIPOS>ATOM
      1 N         140.2758  139.0987  163.0940 N.am    1  UNL1       -0.2531
      2 C         140.4506  140.2783  162.1841 C.2     1  UNL1        0.3135
      3 O         140.2935  141.6699  162.7215 O.2     1  UNL1       -0.2518
      4 N         140.7826  140.0663  160.7367 N.am    1  UNL1       -0.2282
      5 C         140.9397  138.6747  160.1993 C.3     1  UNL1        0.1015
      6 C         141.2717  138.4628  158.7519 C.3     1  UNL1        0.0268
      7 C         141.4465  139.6424  157.8420 C.3     1  UNL1        0.0310
      8 C         141.2893  141.0339  158.3794 C.ar    1  UNL1        0.0096
      9 C         141.4641  142.2135  157.4694 C.ar    1  UNL1       -0.0028
     10 C         141.3070  143.6051  158.0068 C.ar    1  UNL1        0.0146
     11 CA        140.9750  143.8171  159.4542 C.ar    1  UNL1        0.1221
     12 N         140.8002  142.6375  160.3642 N.ar    1  UNL1       -0.2275
     13 C         140.9574  141.2459  159.8267 C.ar    1  UNL1        0.1345
     14 H         140.3790  138.1854  162.7413 H       1  UNL1        0.1578
     15 C         140.6273  140.1316  166.9097 C.ar    1  UNL1        0.1525
     16 C         140.9592  139.9197  165.4624 C.ar    1  UNL1        0.0721
     17 C         139.9438  139.3107  164.5414 C.ar    1  UNL1        0.1384
     18 N         138.5965  138.9137  165.0678 N.ar    1  UNL1       -0.2281
     19 C         138.2646  139.1257  166.5152 C.ar    1  UNL1        0.1136
     20 C         139.2800  139.7346  167.4361 C.ar    1  UNL1        0.1215
     21 C         138.9480  139.9466  168.8834 C.1     1  UNL1        0.1051
     22 N         138.6160  140.1585  170.3309 N.1     1  UNL1       -0.1907
     23 O         141.6427  140.7406  167.8306 O.3     1  UNL1       -0.4719
     24 C         142.1669  142.1201  167.5620 C.3     1  UNL1        0.2373
     25 C         143.3316  142.3127  166.6365 C.3     1  UNL1        0.1894
     26 C         143.6676  142.6009  164.0764 C.3     1  UNL1        0.1743
     27 O         143.1711  143.1302  165.3891 O.3     1  UNL1       -0.3471
     28 C         140.8179  145.2086  159.9916 C.2     1  UNL1        0.2529
     29 O         139.5886  145.5786  160.7676 O.2     1  UNL1       -0.2815
     30 C         141.4818  144.7846  157.0969 C.3     1  UNL1        0.1008
     31 N         140.2982  145.3563  156.3742 N.3     1  UNL1       -0.2666
     32 C         140.1904  146.8379  156.1662 C.3     1  UNL1        0.0882
     33 C         139.0068  147.4097  155.4436 C.3     1  UNL1        0.0702
     34 C         138.8990  148.8912  155.2355 C.3     1  UNL1        0.0186
     35 N         137.9309  146.4998  154.9290 N.3     1  UNL1       -0.2974
     36 C         138.0388  145.0182  155.1371 C.3     1  UNL1        0.0702
     37 C         136.9630  144.1083  154.6225 C.3     1  UNL1        0.0186
     38 C         139.2224  144.4465  155.8597 C.3     1  UNL1        0.0882
     39 H         137.8730  146.6523  153.9221 H       1  UNL1        0.1232
@<TRIPOS>BOND
     1    26    27    1
     2    27    25    1
     3    25    24    1
     4    24    23    1
     5    23    15    1
     6    15    16   ar
     7    16    17   ar
     8    17     1    1
     9     1     2   am
    10     2     3    2
    11     2     4   am
    12     4     5    1
    13     5     6    1
    14     6     7    1
    15     7     8    1
    16     8     9   ar
    17     9    10   ar
    18    10    30    1
    19    30    31    1
    20    31    32    1
    21    32    33    1
    22    33    34    1
    23    33    35    1
    24    35    36    1
    25    36    37    1
    26    36    38    1
    27    10    11   ar
    28    11    28    1
    29    28    29    2
    30    11    12   ar
    31    12    13   ar
    32    17    18   ar
    33    18    19   ar
    34    19    20   ar
    35    20    21    1
    36    21    22    3
    37    20    15   ar
    38    13     4    1
    39    13     8   ar
    40    38    31    1
    41     1    14    1
    42    35    39    1
