@<TRIPOS>MOLECULE
*****
 30 34 0 0 0
SMALL
GASTEIGER

@<TRIPOS>ATOM
      1 C         138.4993  138.3002  163.1883 C.ar    1  UNL1       -0.0206
      2 C         138.8915  137.2351  164.1689 C.ar    1  UNL1       -0.0011
      3 C         138.8765  137.5277  165.6401 C.ar    1  UNL1        0.0373
      4 C         138.4693  138.8855  166.1306 C.ar    1  UNL1        0.1477
      5 C         138.0770  139.9507  165.1499 C.ar    1  UNL1        0.0373
      6 C         138.0920  139.6580  163.6788 C.ar    1  UNL1       -0.0011
      7 C         138.5143  138.0076  161.7172 C.3     1  UNL1        0.0437
      8 C         139.4929  138.7094  160.8229 C.3     1  UNL1        0.0768
      9 C         141.7280  142.3149  162.3243 C.3     1  UNL1        0.0781
     10 C         142.2462  140.9373  162.6134 C.3     1  UNL1        0.0372
     11 C         141.5011  139.7354  162.1130 C.3     1  UNL1        0.0738
     12 N         140.2380  139.9112  161.3233 N.3     1  UNL1       -0.2723
     13 C         139.7198  141.2889  161.0342 C.3     1  UNL1        0.0738
     14 C         140.4649  142.4907  161.5346 C.3     1  UNL1        0.0372
     15 O         140.6034  144.5210  164.4497 O.2     1  UNL1       -0.2749
     16 C         141.9561  144.5308  163.8017 C.2     1  UNL1        0.2256
     17 C         143.0294  145.5564  164.0169 C.3     1  UNL1        0.0870
     18 C         144.2097  145.1762  163.1729 C.3     1  UNL1        0.0311
     19 C         143.8659  143.9156  162.4361 C.3     1  UNL1        0.0938
     20 N         142.4731  143.5168  162.8247 N.am    1  UNL1       -0.2811
     21 O         138.4542  139.1781  167.6016 O.3     1  UNL1       -0.4313
     22 C         139.5445  140.0077  168.2125 C.ar    1  UNL1        0.2642
     23 N         139.4265  140.8444  169.4519 N.ar    1  UNL1       -0.1859
     24 C         140.7532  141.5001  169.6966 C.ar    1  UNL1        0.1720
     25 N         141.2284  142.4342  170.7697 N.ar    1  UNL1       -0.2245
     26 C         142.6415  142.9369  170.7546 C.ar    1  UNL1        0.1006
     27 C         143.5795  142.5055  169.6665 C.ar    1  UNL1        0.0213
     28 C         143.1043  141.5713  168.5934 C.ar    1  UNL1        0.0113
     29 C         141.6912  141.0686  168.6085 C.ar    1  UNL1        0.0697
     30 S         140.9441  140.1463  167.6913 S.2     1  UNL1       -0.0267
@<TRIPOS>BOND
     1    15    16    2
     2    16    17    1
     3    17    18    1
     4    18    19    1
     5    19    20    1
     6    20     9    1
     7     9    10    1
     8    10    11    1
     9    11    12    1
    10    12     8    1
    11     8     7    1
    12     7     1    1
    13     1     2   ar
    14     2     3   ar
    15     3     4   ar
    16     4    21    1
    17    21    22    1
    18    22    23   ar
    19    23    24   ar
    20    24    25   ar
    21    25    26   ar
    22    26    27   ar
    23    27    28   ar
    24    28    29   ar
    25    29    30   ar
    26     4     5   ar
    27     5     6   ar
    28    12    13    1
    29    13    14    1
    30    20    16   am
    31    14     9    1
    32     6     1   ar
    33    30    22   ar
    34    29    24   ar
@<TRIPOS>MOLECULE
*****
 30 34 0 0 0
SMALL
GASTEIGER

@<TRIPOS>ATOM
      1 C         139.9424  137.9942  164.5978 C.ar    1  UNL1       -0.0206
      2 C         141.3325  138.2455  165.1021 C.ar    1  UNL1       -0.0011
      3 C         142.4956  138.1865  164.1566 C.ar    1  UNL1        0.0373
      4 C         142.2684  137.8762  162.7067 C.ar    1  UNL1        0.1477
      5 C         140.8782  137.6249  162.2024 C.ar    1  UNL1        0.0373
      6 C         139.7153  137.6839  163.1479 C.ar    1  UNL1       -0.0011
      7 C         138.7794  138.0532  165.5434 C.3     1  UNL1        0.0437
      8 C         138.0211  139.3352  165.7205 C.3     1  UNL1        0.0768
      9 C         139.0841  142.9386  163.2435 C.3     1  UNL1        0.0781
     10 C         138.0233  141.9897  162.7702 C.3     1  UNL1        0.0372
     11 C         137.6689  140.7885  163.5959 C.3     1  UNL1        0.0738
     12 N         138.3754  140.5363  164.8948 N.3     1  UNL1       -0.2723
     13 C         139.4363  141.4854  165.3681 C.3     1  UNL1        0.0738
     14 C         139.7906  142.6865  164.5425 C.3     1  UNL1        0.0372
     15 O         140.8951  142.9337  160.5288 O.2     1  UNL1       -0.2749
     16 C         140.2709  144.1375  161.1700 C.2     1  UNL1        0.2256
     17 C         140.3695  145.5504  160.6760 C.3     1  UNL1        0.0870
     18 C         139.5980  146.4259  161.6185 C.3     1  UNL1        0.0311
     19 C         139.0225  145.5541  162.6951 C.3     1  UNL1        0.0938
     20 N         139.4384  144.1397  162.4179 N.am    1  UNL1       -0.2811
     21 O         143.4313  137.8172  161.7612 O.3     1  UNL1       -0.4313
     22 C         143.5717  138.8473  160.6798 C.ar    1  UNL1        0.2642
     23 N         143.4484  138.6002  159.2055 N.ar    1  UNL1       -0.1859
     24 C         143.6605  139.9054  158.4974 C.ar    1  UNL1        0.1720
     25 N         143.6549  140.2705  157.0425 N.ar    1  UNL1       -0.2245
     26 C         143.9038  141.6894  156.6244 C.ar    1  UNL1        0.1006
     27 C         144.1583  142.7432  157.6612 C.ar    1  UNL1        0.0213
     28 C         144.1639  142.3780  159.1160 C.ar    1  UNL1        0.0113
     29 C         143.9151  140.9592  159.5341 C.ar    1  UNL1        0.0697
     30 S         143.8602  140.3052  160.8829 S.2     1  UNL1       -0.0267
@<TRIPOS>BOND
     1    15    16    2
     2    16    17    1
     3    17    18    1
     4    18    19    1
     5    19    20    1
     6    20     9    1
     7     9    10    1
     8    10    11    1
     9    11    12    1
    10    12     8    1
    11     8     7    1
    12     7     1    1
    13     1     2   ar
    14     2     3   ar
    15     3     4   ar
    16     4    21    1
    17    21    22    1
    18    22    23   ar
    19    23    24   ar
    20    24    25   ar
    21    25    26   ar
    22    26    27   ar
    23    27    28   ar
    24    28    29   ar
    25    29    30   ar
    26     4     5   ar
    27     5     6   ar
    28    12    13    1
    29    13    14    1
    30    20    16   am
    31    14     9    1
    32     6     1   ar
    33    30    22   ar
    34    29    24   ar
@<TRIPOS>MOLECULE
*****
 30 34 0 0 0
SMALL
GASTEIGER

@<TRIPOS>ATOM
      1 C         138.4948  138.7229  162.8926 C.ar    1  UNL1       -0.0206
      2 C         138.8937  137.5348  163.7167 C.ar    1  UNL1       -0.0011
      3 C         138.8711  137.6190  165.2142 C.ar    1  UNL1        0.0373
      4 C         138.4496  138.8914  165.8875 C.ar    1  UNL1        0.1477
      5 C         138.0507  140.0796  165.0633 C.ar    1  UNL1        0.0373
      6 C         138.0733  139.9953  163.5659 C.ar    1  UNL1       -0.0011
      7 C         138.5174  138.6387  161.3950 C.3     1  UNL1        0.0437
      8 C         137.7267  139.6161  160.5769 C.3     1  UNL1        0.0768
      9 C         139.7990  143.0794  158.5866 C.3     1  UNL1        0.0781
     10 C         139.1490  143.2634  159.9259 C.3     1  UNL1        0.0372
     11 C         138.4582  142.1090  160.5893 C.3     1  UNL1        0.0738
     12 N         138.4174  140.7705  159.9135 N.3     1  UNL1       -0.2723
     13 C         139.0674  140.5865  158.5742 C.3     1  UNL1        0.0738
     14 C         139.7582  141.7409  157.9108 C.3     1  UNL1        0.0372
     15 O         142.8315  144.1132  159.2063 O.2     1  UNL1       -0.2749
     16 C         141.8837  144.7090  158.2081 C.2     1  UNL1        0.2256
     17 C         142.1633  145.8847  157.3194 C.3     1  UNL1        0.0870
     18 C         140.9422  146.1361  156.4853 C.3     1  UNL1        0.0311
     19 C         139.9078  145.1158  156.8586 C.3     1  UNL1        0.0938
     20 N         140.4897  144.2338  157.9233 N.am    1  UNL1       -0.2811
     21 O         138.4270  138.9757  167.3849 O.3     1  UNL1       -0.4313
     22 C         139.4533  139.7989  168.1054 C.ar    1  UNL1        0.2642
     23 N         139.4052  140.2015  169.5495 N.ar    1  UNL1       -0.1859
     24 C         140.6301  141.0154  169.8449 C.ar    1  UNL1        0.1720
     25 N         141.1164  141.6781  171.0996 N.ar    1  UNL1       -0.2245
     26 C         142.4077  142.4411  171.0927 C.ar    1  UNL1        0.1006
     27 C         143.2129  142.5415  169.8311 C.ar    1  UNL1        0.0213
     28 C         142.7266  141.8788  168.5764 C.ar    1  UNL1        0.0113
     29 C         141.4353  141.1158  168.5833 C.ar    1  UNL1        0.0697
     30 S         140.7079  140.3639  167.5082 S.2     1  UNL1       -0.0267
@<TRIPOS>BOND
     1    15    16    2
     2    16    17    1
     3    17    18    1
     4    18    19    1
     5    19    20    1
     6    20     9    1
     7     9    10    1
     8    10    11    1
     9    11    12    1
    10    12     8    1
    11     8     7    1
    12     7     1    1
    13     1     2   ar
    14     2     3   ar
    15     3     4   ar
    16     4    21    1
    17    21    22    1
    18    22    23   ar
    19    23    24   ar
    20    24    25   ar
    21    25    26   ar
    22    26    27   ar
    23    27    28   ar
    24    28    29   ar
    25    29    30   ar
    26     4     5   ar
    27     5     6   ar
    28    12    13    1
    29    13    14    1
    30    20    16   am
    31    14     9    1
    32     6     1   ar
    33    30    22   ar
    34    29    24   ar
@<TRIPOS>MOLECULE
*****
 30 34 0 0 0
SMALL
GASTEIGER

@<TRIPOS>ATOM
      1 C         141.8757  137.8225  162.1199 C.ar    1  UNL1       -0.0206
      2 C         141.1011  138.2676  160.9150 C.ar    1  UNL1       -0.0011
      3 C         141.8089  138.9336  159.7723 C.ar    1  UNL1        0.0373
      4 C         143.2912  139.1544  159.8347 C.ar    1  UNL1        0.1477
      5 C         144.0658  138.7092  161.0397 C.ar    1  UNL1        0.0373
      6 C         143.3580  138.0433  162.1823 C.ar    1  UNL1       -0.0011
      7 C         141.1679  137.1565  163.2626 C.3     1  UNL1        0.0437
      8 C         139.8983  137.7443  163.8033 C.3     1  UNL1        0.0768
      9 C         140.0397  140.5776  167.2965 C.3     1  UNL1        0.0781
     10 C         138.7827  139.8149  166.9999 C.3     1  UNL1        0.0372
     11 C         138.7355  138.8705  165.8355 C.3     1  UNL1        0.0738
     12 N         139.9454  138.6888  164.9677 N.3     1  UNL1       -0.2723
     13 C         141.2025  139.4515  165.2643 C.3     1  UNL1        0.0738
     14 C         141.2497  140.3959  166.4287 C.3     1  UNL1        0.0372
     15 O         139.0532  139.9239  170.3377 O.2     1  UNL1       -0.2749
     16 C         139.6334  141.2216  169.8588 C.2     1  UNL1        0.2256
     17 C         139.8620  142.4466  170.6937 C.3     1  UNL1        0.0870
     18 C         140.4568  143.5042  169.8119 C.3     1  UNL1        0.0311
     19 C         140.5957  142.9328  168.4318 C.3     1  UNL1        0.0938
     20 N         140.0869  141.5221  168.4609 N.am    1  UNL1       -0.2811
     21 O         143.9990  139.8203  158.6921 O.3     1  UNL1       -0.4313
     22 C         143.5562  141.1743  158.2224 C.ar    1  UNL1        0.2642
     23 N         143.2555  142.3559  159.0961 N.ar    1  UNL1       -0.1859
     24 C         142.8498  143.4963  158.2101 C.ar    1  UNL1        0.1720
     25 N         142.4414  144.9072  158.5140 N.ar    1  UNL1       -0.2245
     26 C         142.0829  145.8414  157.3965 C.ar    1  UNL1        0.1006
     27 C         142.1329  145.3646  155.9752 C.ar    1  UNL1        0.0213
     28 C         142.5414  143.9537  155.6713 C.ar    1  UNL1        0.0113
     29 C         142.8998  143.0195  156.7888 C.ar    1  UNL1        0.0697
     30 S         143.3364  141.5845  156.7964 S.2     1  UNL1       -0.0267
@<TRIPOS>BOND
     1    15    16    2
     2    16    17    1
     3    17    18    1
     4    18    19    1
     5    19    20    1
     6    20     9    1
     7     9    10    1
     8    10    11    1
     9    11    12    1
    10    12     8    1
    11     8     7    1
    12     7     1    1
    13     1     2   ar
    14     2     3   ar
    15     3     4   ar
    16     4    21    1
    17    21    22    1
    18    22    23   ar
    19    23    24   ar
    20    24    25   ar
    21    25    26   ar
    22    26    27   ar
    23    27    28   ar
    24    28    29   ar
    25    29    30   ar
    26     4     5   ar
    27     5     6   ar
    28    12    13    1
    29    13    14    1
    30    20    16   am
    31    14     9    1
    32     6     1   ar
    33    30    22   ar
    34    29    24   ar
@<TRIPOS>MOLECULE
*****
 30 34 0 0 0
SMALL
GASTEIGER

@<TRIPOS>ATOM
      1 C         140.3216  138.0672  161.5253 C.ar    1  UNL1       -0.0206
      2 C         139.7749  138.4086  160.1709 C.ar    1  UNL1       -0.0011
      3 C         140.6788  138.4025  158.9738 C.ar    1  UNL1        0.0373
      4 C         142.1295  138.0550  159.1313 C.ar    1  UNL1        0.1477
      5 C         142.6762  137.7136  160.4858 C.ar    1  UNL1        0.0373
      6 C         141.7723  137.7197  161.6828 C.ar    1  UNL1       -0.0011
      7 C         139.4177  138.0733  162.7224 C.3     1  UNL1        0.0437
      8 C         139.9418  137.6426  164.0602 C.3     1  UNL1        0.0768
      9 C         140.0821  140.5739  167.4716 C.3     1  UNL1        0.0781
     10 C         138.7820  139.9323  167.0872 C.3     1  UNL1        0.0372
     11 C         138.7351  138.9551  165.9500 C.3     1  UNL1        0.0738
     12 N         139.9885  138.6197  165.1973 N.3     1  UNL1       -0.2723
     13 C         141.2887  139.2614  165.5818 C.3     1  UNL1        0.0738
     14 C         141.3355  140.2385  166.7189 C.3     1  UNL1        0.0372
     15 O         139.2842  139.9471  170.5732 O.2     1  UNL1       -0.2749
     16 C         139.7621  141.2629  170.0345 C.2     1  UNL1        0.2256
     17 C         139.9572  142.5216  170.8267 C.3     1  UNL1        0.0870
     18 C         140.4445  143.5876  169.8907 C.3     1  UNL1        0.0311
     19 C         140.5506  142.9878  168.5199 C.3     1  UNL1        0.0938
     20 N         140.1289  141.5510  168.6087 N.am    1  UNL1       -0.2811
     21 O         143.0335  138.0489  157.9343 O.3     1  UNL1       -0.4313
     22 C         142.8423  137.0245  156.8553 C.ar    1  UNL1        0.2642
     23 N         143.2683  135.5876  156.9183 N.ar    1  UNL1       -0.1859
     24 C         142.8809  134.9322  155.6258 C.ar    1  UNL1        0.1720
     25 N         143.0481  133.5292  155.1223 N.ar    1  UNL1       -0.2245
     26 C         142.5498  133.1581  153.7571 C.ar    1  UNL1        0.1006
     27 C         141.8845  134.1899  152.8953 C.ar    1  UNL1        0.0213
     28 C         141.7173  135.5929  153.3988 C.ar    1  UNL1        0.0113
     29 C         142.2155  135.9641  154.7641 C.ar    1  UNL1        0.0697
     30 S         142.1917  137.2571  155.5240 S.2     1  UNL1       -0.0267
@<TRIPOS>BOND
     1    15    16    2
     2    16    17    1
     3    17    18    1
     4    18    19    1
     5    19    20    1
     6    20     9    1
     7     9    10    1
     8    10    11    1
     9    11    12    1
    10    12     8    1
    11     8     7    1
    12     7     1    1
    13     1     2   ar
    14     2     3   ar
    15     3     4   ar
    16     4    21    1
    17    21    22    1
    18    22    23   ar
    19    23    24   ar
    20    24    25   ar
    21    25    26   ar
    22    26    27   ar
    23    27    28   ar
    24    28    29   ar
    25    29    30   ar
    26     4     5   ar
    27     5     6   ar
    28    12    13    1
    29    13    14    1
    30    20    16   am
    31    14     9    1
    32     6     1   ar
    33    30    22   ar
    34    29    24   ar
@<TRIPOS>MOLECULE
*****
 30 34 0 0 0
SMALL
GASTEIGER

@<TRIPOS>ATOM
      1 C         139.0032  139.3819  161.8125 C.ar    1  UNL1       -0.0206
      2 C         139.7048  138.2417  162.4891 C.ar    1  UNL1       -0.0011
      3 C         139.5144  138.0101  163.9589 C.ar    1  UNL1        0.0373
      4 C         138.6224  138.9187  164.7520 C.ar    1  UNL1        0.1477
      5 C         137.9209  140.0589  164.0752 C.ar    1  UNL1        0.0373
      6 C         138.1113  140.2904  162.6055 C.ar    1  UNL1       -0.0011
      7 C         139.1936  139.6135  160.3427 C.3     1  UNL1        0.0437
      8 C         140.5685  139.5535  159.7459 C.3     1  UNL1        0.0768
      9 C         141.4692  136.6118  156.4619 C.3     1  UNL1        0.0781
     10 C         142.5255  136.9582  157.4689 C.3     1  UNL1        0.0372
     11 C         142.2252  137.9388  158.5636 C.3     1  UNL1        0.0738
     12 N         140.8687  138.5729  158.6512 N.3     1  UNL1       -0.2723
     13 C         139.8124  138.2264  157.6441 C.3     1  UNL1        0.0738
     14 C         140.1126  137.2459  156.5495 C.3     1  UNL1        0.0372
     15 O         142.5123  133.5461  156.8657 O.2     1  UNL1       -0.2749
     16 C         142.2489  134.2220  155.5528 C.2     1  UNL1        0.2256
     17 C         142.4187  133.6075  154.1951 C.3     1  UNL1        0.0870
     18 C         142.0442  134.6368  153.1702 C.3     1  UNL1        0.0311
     19 C         141.6429  135.8876  153.8947 C.3     1  UNL1        0.0938
     20 N         141.7694  135.6312  155.3672 N.am    1  UNL1       -0.2811
     21 O         138.4320  138.6871  166.2217 O.3     1  UNL1       -0.4313
     22 C         139.0596  139.6193  167.2153 C.ar    1  UNL1        0.2642
     23 N         138.8452  139.6000  168.6998 N.ar    1  UNL1       -0.1859
     24 C         139.6648  140.7032  169.3009 C.ar    1  UNL1        0.1720
     25 N         139.8478  141.1599  170.7178 N.ar    1  UNL1       -0.2245
     26 C         140.7518  142.3176  171.0218 C.ar    1  UNL1        0.1006
     27 C         141.4728  143.0186  169.9088 C.ar    1  UNL1        0.0213
     28 C         141.2898  142.5619  168.4919 C.ar    1  UNL1        0.0113
     29 C         140.3858  141.4042  168.1879 C.ar    1  UNL1        0.0697
     30 S         140.0118  140.7343  166.8989 S.2     1  UNL1       -0.0267
@<TRIPOS>BOND
     1    15    16    2
     2    16    17    1
     3    17    18    1
     4    18    19    1
     5    19    20    1
     6    20     9    1
     7     9    10    1
     8    10    11    1
     9    11    12    1
    10    12     8    1
    11     8     7    1
    12     7     1    1
    13     1     2   ar
    14     2     3   ar
    15     3     4   ar
    16     4    21    1
    17    21    22    1
    18    22    23   ar
    19    23    24   ar
    20    24    25   ar
    21    25    26   ar
    22    26    27   ar
    23    27    28   ar
    24    28    29   ar
    25    29    30   ar
    26     4     5   ar
    27     5     6   ar
    28    12    13    1
    29    13    14    1
    30    20    16   am
    31    14     9    1
    32     6     1   ar
    33    30    22   ar
    34    29    24   ar
@<TRIPOS>MOLECULE
*****
 30 34 0 0 0
SMALL
GASTEIGER

@<TRIPOS>ATOM
      1 C         142.9110  141.1300  157.2148 C.ar    1  UNL1       -0.0206
      2 C         143.8885  141.6127  158.2451 C.ar    1  UNL1       -0.0011
      3 C         143.5885  142.8466  159.0436 C.ar    1  UNL1        0.0373
      4 C         142.3111  143.5978  158.8118 C.ar    1  UNL1        0.1477
      5 C         141.3335  143.1151  157.7815 C.ar    1  UNL1        0.0373
      6 C         141.6335  141.8813  156.9830 C.ar    1  UNL1       -0.0011
      7 C         143.2110  139.8961  156.4163 C.3     1  UNL1        0.0437
      8 C         142.6797  138.5663  156.8627 C.3     1  UNL1        0.0768
      9 C         140.9316  138.1104  160.9841 C.3     1  UNL1        0.0781
     10 C         142.4099  137.9646  160.7762 C.3     1  UNL1        0.0372
     11 C         142.9927  138.1166  159.4023 C.3     1  UNL1        0.0738
     12 N         142.0970  138.4144  158.2365 N.3     1  UNL1       -0.2723
     13 C         140.6186  138.5602  158.4445 C.3     1  UNL1        0.0738
     14 C         140.0359  138.4082  159.8183 C.3     1  UNL1        0.0372
     15 O         137.9780  139.1189  161.9372 O.2     1  UNL1       -0.2749
     16 C         138.9912  138.4220  162.7960 C.2     1  UNL1        0.2256
     17 C         138.8247  138.0663  164.2437 C.3     1  UNL1        0.0870
     18 C         140.0795  137.3829  164.7004 C.3     1  UNL1        0.0311
     19 C         141.0215  137.3163  163.5348 C.3     1  UNL1        0.0938
     20 N         140.3489  137.9585  162.3579 N.am    1  UNL1       -0.2811
     21 O         142.0111  144.8316  159.6103 O.3     1  UNL1       -0.4313
     22 C         141.1340  144.7447  160.8241 C.ar    1  UNL1        0.2642
     23 N         139.6383  144.6311  160.8248 N.ar    1  UNL1       -0.1859
     24 C         139.1785  144.5723  162.2513 C.ar    1  UNL1        0.1720
     25 N         137.8132  144.4584  162.8619 N.ar    1  UNL1       -0.2245
     26 C         137.6594  144.4218  164.3536 C.ar    1  UNL1        0.1006
     27 C         138.8710  144.4990  165.2346 C.ar    1  UNL1        0.0213
     28 C         140.2363  144.6128  164.6240 C.ar    1  UNL1        0.0113
     29 C         140.3901  144.6495  163.1324 C.ar    1  UNL1        0.0697
     30 S         141.5986  144.7560  162.2502 S.2     1  UNL1       -0.0267
@<TRIPOS>BOND
     1    15    16    2
     2    16    17    1
     3    17    18    1
     4    18    19    1
     5    19    20    1
     6    20     9    1
     7     9    10    1
     8    10    11    1
     9    11    12    1
    10    12     8    1
    11     8     7    1
    12     7     1    1
    13     1     2   ar
    14     2     3   ar
    15     3     4   ar
    16     4    21    1
    17    21    22    1
    18    22    23   ar
    19    23    24   ar
    20    24    25   ar
    21    25    26   ar
    22    26    27   ar
    23    27    28   ar
    24    28    29   ar
    25    29    30   ar
    26     4     5   ar
    27     5     6   ar
    28    12    13    1
    29    13    14    1
    30    20    16   am
    31    14     9    1
    32     6     1   ar
    33    30    22   ar
    34    29    24   ar
@<TRIPOS>MOLECULE
*****
 30 34 0 0 0
SMALL
GASTEIGER

@<TRIPOS>ATOM
      1 C         140.2864  142.5009  156.8198 C.ar    1  UNL1       -0.0206
      2 C         139.0603  143.1191  157.4233 C.ar    1  UNL1       -0.0011
      3 C         138.1210  142.2804  158.2384 C.ar    1  UNL1        0.0373
      4 C         138.4079  140.8233  158.4499 C.ar    1  UNL1        0.1477
      5 C         139.6341  140.2051  157.8463 C.ar    1  UNL1        0.0373
      6 C         140.5733  141.0438  157.0313 C.ar    1  UNL1       -0.0011
      7 C         141.2257  143.3396  156.0047 C.3     1  UNL1        0.0437
      8 C         142.3909  144.0163  156.6636 C.3     1  UNL1        0.0768
      9 C         143.9309  142.5060  160.6130 C.3     1  UNL1        0.0781
     10 C         142.7462  143.4250  160.5719 C.3     1  UNL1        0.0372
     11 C         142.2328  143.9285  159.2554 C.3     1  UNL1        0.0738
     12 N         142.9042  143.5129  157.9801 N.3     1  UNL1       -0.2723
     13 C         144.0891  142.5939  158.0212 C.3     1  UNL1        0.0738
     14 C         144.6024  142.0905  159.3376 C.3     1  UNL1        0.0372
     15 O         144.2635  139.3753  161.4716 O.2     1  UNL1       -0.2749
     16 C         144.5971  140.5635  162.3241 C.2     1  UNL1        0.2256
     17 C         145.1422  140.5213  163.7209 C.3     1  UNL1        0.0870
     18 C         145.3262  141.9343  164.1896 C.3     1  UNL1        0.0311
     19 C         144.8948  142.8498  163.0823 C.3     1  UNL1        0.0938
     20 N         144.4442  142.0026  161.9294 N.am    1  UNL1       -0.2811
     21 O         137.4687  139.9846  159.2649 O.3     1  UNL1       -0.4313
     22 C         137.7480  139.7432  160.7187 C.ar    1  UNL1        0.2642
     23 N         137.4990  140.7114  161.8370 N.ar    1  UNL1       -0.1859
     24 C         137.9225  140.0578  163.1190 C.ar    1  UNL1        0.1720
     25 N         137.9090  140.5349  164.5410 N.ar    1  UNL1       -0.2245
     26 C         138.4063  139.6398  165.6371 C.ar    1  UNL1        0.1006
     27 C         138.9172  138.2676  165.3111 C.ar    1  UNL1        0.0213
     28 C         138.9306  137.7906  163.8891 C.ar    1  UNL1        0.0113
     29 C         138.4333  138.6857  162.7930 C.ar    1  UNL1        0.0697
     30 S         138.3255  138.4912  161.3096 S.2     1  UNL1       -0.0267
@<TRIPOS>BOND
     1    15    16    2
     2    16    17    1
     3    17    18    1
     4    18    19    1
     5    19    20    1
     6    20     9    1
     7     9    10    1
     8    10    11    1
     9    11    12    1
    10    12     8    1
    11     8     7    1
    12     7     1    1
    13     1     2   ar
    14     2     3   ar
    15     3     4   ar
    16     4    21    1
    17    21    22    1
    18    22    23   ar
    19    23    24   ar
    20    24    25   ar
    21    25    26   ar
    22    26    27   ar
    23    27    28   ar
    24    28    29   ar
    25    29    30   ar
    26     4     5   ar
    27     5     6   ar
    28    12    13    1
    29    13    14    1
    30    20    16   am
    31    14     9    1
    32     6     1   ar
    33    30    22   ar
    34    29    24   ar
@<TRIPOS>MOLECULE
*****
 30 34 0 0 0
SMALL
GASTEIGER

@<TRIPOS>ATOM
      1 C         142.5475  142.8047  157.0465 C.ar    1  UNL1       -0.0206
      2 C         143.5873  143.0005  158.1096 C.ar    1  UNL1       -0.0011
      3 C         144.1291  141.8175  158.8560 C.ar    1  UNL1        0.0373
      4 C         143.6309  140.4385  158.5391 C.ar    1  UNL1        0.1477
      5 C         142.5910  140.2427  157.4758 C.ar    1  UNL1        0.0373
      6 C         142.0493  141.4257  156.7296 C.ar    1  UNL1       -0.0011
      7 C         142.0057  143.9877  156.3002 C.3     1  UNL1        0.0437
      8 C         140.8120  144.7259  156.8294 C.3     1  UNL1        0.0768
      9 C         139.6486  144.3139  161.1568 C.3     1  UNL1        0.0781
     10 C         140.5046  145.4643  160.7166 C.3     1  UNL1        0.0372
     11 C         140.8924  145.6017  159.2740 C.3     1  UNL1        0.0738
     12 N         140.4242  144.5886  158.2718 N.3     1  UNL1       -0.2723
     13 C         139.5682  143.4381  158.7121 C.3     1  UNL1        0.0738
     14 C         139.1804  143.3008  160.1546 C.3     1  UNL1        0.0372
     15 O         141.6779  143.7056  163.6390 O.2     1  UNL1       -0.2749
     16 C         140.1936  143.8970  163.7403 C.2     1  UNL1        0.2256
     17 C         139.3815  143.8424  165.0002 C.3     1  UNL1        0.0870
     18 C         137.9468  144.0883  164.6380 C.3     1  UNL1        0.0311
     19 C         137.8722  144.2948  163.1541 C.3     1  UNL1        0.0938
     20 N         139.2608  144.1766  162.5993 N.am    1  UNL1       -0.2811
     21 O         144.1726  139.2555  159.2853 O.3     1  UNL1       -0.4313
     22 C         143.6064  138.8907  160.6256 C.ar    1  UNL1        0.2642
     23 N         144.1609  139.2998  161.9579 N.ar    1  UNL1       -0.1859
     24 C         143.2835  138.7148  163.0246 C.ar    1  UNL1        0.1720
     25 N         143.3416  138.7842  164.5219 N.ar    1  UNL1       -0.2245
     26 C         142.3028  138.0830  165.3460 C.ar    1  UNL1        0.1006
     27 C         141.2060  137.3123  164.6729 C.ar    1  UNL1        0.0213
     28 C         141.1480  137.2428  163.1757 C.ar    1  UNL1        0.0113
     29 C         142.1867  137.9441  162.3516 C.ar    1  UNL1        0.0697
     30 S         142.3863  138.0528  160.8689 S.2     1  UNL1       -0.0267
@<TRIPOS>BOND
     1    15    16    2
     2    16    17    1
     3    17    18    1
     4    18    19    1
     5    19    20    1
     6    20     9    1
     7     9    10    1
     8    10    11    1
     9    11    12    1
    10    12     8    1
    11     8     7    1
    12     7     1    1
    13     1     2   ar
    14     2     3   ar
    15     3     4   ar
    16     4    21    1
    17    21    22    1
    18    22    23   ar
    19    23    24   ar
    20    24    25   ar
    21    25    26   ar
    22    26    27   ar
    23    27    28   ar
    24    28    29   ar
    25    29    30   ar
    26     4     5   ar
    27     5     6   ar
    28    12    13    1
    29    13    14    1
    30    20    16   am
    31    14     9    1
    32     6     1   ar
    33    30    22   ar
    34    29    24   ar
