@<TRIPOS>MOLECULE
*****
 39 41 0 0 0
SMALL
GASTEIGER

@<TRIPOS>ATOM
      1 C         140.9386  138.6982  161.8030 C.3     1  UNL1        0.0241
      2 C         141.7316  139.4667  162.8182 C.3     1  UNL1        0.0232
      3 C         141.1271  139.7928  164.1516 C.3     1  UNL1        0.0938
      4 N         139.7296  139.3504  164.4700 N.am    1  UNL1       -0.2760
      5 C         139.1251  139.6766  165.8035 C.2     1  UNL1        0.2520
      6 O         137.7276  139.2342  166.1218 O.2     1  UNL1       -0.2698
      7 C         138.9366  138.5820  163.4548 C.3     1  UNL1        0.0938
      8 C         139.5411  138.2559  162.1213 C.3     1  UNL1        0.0232
      9 C         139.9181  140.4450  166.8187 C.ar    1  UNL1        0.0878
     10 C         140.6122  139.7201  167.9334 C.ar    1  UNL1        0.0089
     11 C         141.4052  140.4886  168.9486 C.ar    1  UNL1        0.0187
     12 C         141.5041  141.9820  168.8490 C.ar    1  UNL1        0.1087
     13 C         140.8100  142.7070  167.7342 C.ar    1  UNL1        0.0557
     14 C         140.0170  141.9385  166.7191 C.ar    1  UNL1        0.1524
     15 S         142.2971  142.7505  169.8641 S.O2    1  UNL1        0.0105
     16 C         143.0901  143.5190  170.8794 C.3     1  UNL1        0.1816
     17 O         141.0792  142.8597  170.7329 O.2     1  UNL1       -0.1686
     18 O         143.5150  142.6413  168.9954 O.2     1  UNL1       -0.1686
     19 O         139.3229  142.6634  165.6043 O.3     1  UNL1       -0.4043
     20 C         139.9494  143.8845  164.9991 C.3     1  UNL1        0.5753
     21 F         140.5759  145.1057  164.3939 F       1  UNL1       -0.1328
     22 F         141.0258  143.0326  164.3945 F       1  UNL1       -0.1328
     23 F         138.8731  144.7365  165.6038 F       1  UNL1       -0.1328
     24 C         142.8226  137.9781  161.1459 C.3     1  UNL1        0.0240
     25 C         141.5430  138.3721  160.4695 C.3     1  UNL1        0.1151
     26 C         140.2635  138.7660  159.7931 C.3     1  UNL1        0.0240
     27 S         142.1475  138.0459  159.1360 S.O2    1  UNL1        0.0054
     28 O         143.3494  137.4675  159.8223 O.2     1  UNL1       -0.1687
     29 O         140.9457  138.6243  158.4497 O.2     1  UNL1       -0.1687
     30 C         142.7520  137.7198  157.8024 C.ar    1  UNL1        0.1055
     31 C         143.1800  138.8246  156.8826 C.ar    1  UNL1        0.0183
     32 C         143.7845  138.4984  155.5491 C.ar    1  UNL1        0.0013
     33 C         143.9609  137.0674  155.1355 C.ar    1  UNL1        0.0039
     34 C         143.5329  135.9626  156.0553 C.ar    1  UNL1        0.0727
     35 C         142.9285  136.2888  157.3888 C.ar    1  UNL1        0.0222
     36 C         143.7094  134.5316  155.6417 C.3     1  UNL1        0.4186
     37 F         143.8858  133.1006  155.2280 F       1  UNL1       -0.1659
     38 F         143.2031  134.8657  154.2698 F       1  UNL1       -0.1659
     39 F         144.2156  134.1974  157.0136 F       1  UNL1       -0.1659
@<TRIPOS>BOND
     1    24    25    1
     2    25    26    1
     3    25     1    1
     4     1     2    1
     5     2     3    1
     6     3     4    1
     7     4     5   am
     8     5     6    2
     9     5     9    1
    10     9    10   ar
    11    10    11   ar
    12    11    12   ar
    13    12    15    1
    14    15    16    1
    15    15    17    2
    16    15    18    2
    17    12    13   ar
    18    13    14   ar
    19    14    19    1
    20    19    20    1
    21    20    21    1
    22    20    22    1
    23    20    23    1
    24     4     7    1
    25     7     8    1
    26    25    27    1
    27    27    28    2
    28    27    29    2
    29    27    30    1
    30    30    31   ar
    31    31    32   ar
    32    32    33   ar
    33    33    34   ar
    34    34    36    1
    35    36    37    1
    36    36    38    1
    37    36    39    1
    38    34    35   ar
    39     8     1    1
    40    35    30   ar
    41    14     9   ar
@<TRIPOS>MOLECULE
*****
 39 41 0 0 0
SMALL
GASTEIGER

@<TRIPOS>ATOM
      1 C         140.8378  139.2931  160.3039 C.3     1  UNL1        0.0241
      2 C         141.4654  138.9808  161.6299 C.3     1  UNL1        0.0232
      3 C         141.0854  139.7741  162.8449 C.3     1  UNL1        0.0938
      4 N         140.0777  140.8796  162.7339 N.am    1  UNL1       -0.2760
      5 C         139.6977  141.6729  163.9490 C.2     1  UNL1        0.2520
      6 O         138.6900  142.7784  163.8379 O.2     1  UNL1       -0.2698
      7 C         139.4501  141.1919  161.4078 C.3     1  UNL1        0.0938
      8 C         139.8301  140.3986  160.1928 C.3     1  UNL1        0.0232
      9 C         140.3254  141.3606  165.2750 C.ar    1  UNL1        0.0878
     10 C         141.6162  142.0166  165.6669 C.ar    1  UNL1        0.0089
     11 C         142.2438  141.7043  166.9931 C.ar    1  UNL1        0.0187
     12 C         141.5807  140.7360  167.9272 C.ar    1  UNL1        0.1087
     13 C         140.2900  140.0800  167.5353 C.ar    1  UNL1        0.0557
     14 C         139.6623  140.3923  166.2092 C.ar    1  UNL1        0.1524
     15 S         142.2084  140.4237  169.2533 S.O2    1  UNL1        0.0105
     16 C         142.8361  140.1114  170.5794 C.3     1  UNL1        0.1816
     17 O         141.4508  141.5571  169.8788 O.2     1  UNL1       -0.1686
     18 O         142.9660  139.2903  168.6277 O.2     1  UNL1       -0.1686
     19 O         138.3716  139.7362  165.8173 O.3     1  UNL1       -0.4043
     20 C         138.1297  138.2951  166.1556 C.3     1  UNL1        0.5753
     21 F         137.8879  136.8539  166.4939 F       1  UNL1       -0.1328
     22 F         138.9927  137.8793  165.0013 F       1  UNL1       -0.1328
     23 F         137.2668  138.7108  167.3099 F       1  UNL1       -0.1328
     24 C         139.8632  138.7563  158.4978 C.3     1  UNL1        0.0240
     25 C         141.2178  138.4998  159.0888 C.3     1  UNL1        0.1151
     26 C         142.5723  138.2433  159.6798 C.3     1  UNL1        0.0240
     27 S         141.5977  137.7066  157.8737 S.O2    1  UNL1        0.0054
     28 O         140.1662  137.7070  157.4258 O.2     1  UNL1       -0.1687
     29 O         143.0292  137.7061  158.3216 O.2     1  UNL1       -0.1687
     30 C         141.9777  136.9133  156.6586 C.ar    1  UNL1        0.1055
     31 C         141.6204  137.4174  155.2919 C.ar    1  UNL1        0.0183
     32 C         142.0004  136.6242  154.0769 C.ar    1  UNL1        0.0013
     33 C         142.7377  135.3268  154.2286 C.ar    1  UNL1        0.0039
     34 C         143.0950  134.8226  155.5954 C.ar    1  UNL1        0.0727
     35 C         142.7150  135.6159  156.8104 C.ar    1  UNL1        0.0222
     36 C         143.8324  133.5252  155.7472 C.3     1  UNL1        0.4186
     37 F         144.5697  132.2278  155.8989 F       1  UNL1       -0.1659
     38 F         144.3740  133.9874  157.0674 F       1  UNL1       -0.1659
     39 F         143.2908  133.0630  154.4269 F       1  UNL1       -0.1659
@<TRIPOS>BOND
     1    24    25    1
     2    25    26    1
     3    25     1    1
     4     1     2    1
     5     2     3    1
     6     3     4    1
     7     4     5   am
     8     5     6    2
     9     5     9    1
    10     9    10   ar
    11    10    11   ar
    12    11    12   ar
    13    12    15    1
    14    15    16    1
    15    15    17    2
    16    15    18    2
    17    12    13   ar
    18    13    14   ar
    19    14    19    1
    20    19    20    1
    21    20    21    1
    22    20    22    1
    23    20    23    1
    24     4     7    1
    25     7     8    1
    26    25    27    1
    27    27    28    2
    28    27    29    2
    29    27    30    1
    30    30    31   ar
    31    31    32   ar
    32    32    33   ar
    33    33    34   ar
    34    34    36    1
    35    36    37    1
    36    36    38    1
    37    36    39    1
    38    34    35   ar
    39     8     1    1
    40    35    30   ar
    41    14     9   ar
@<TRIPOS>MOLECULE
*****
 39 41 0 0 0
SMALL
GASTEIGER

@<TRIPOS>ATOM
      1 C         142.2377  140.2429  160.3304 C.3     1  UNL1        0.0241
      2 C         141.7945  139.9258  161.7278 C.3     1  UNL1        0.0232
      3 C         141.9539  140.9469  162.8150 C.3     1  UNL1        0.0938
      4 N         142.5565  142.2850  162.5047 N.am    1  UNL1       -0.2760
      5 C         142.7159  143.3060  163.5920 C.2     1  UNL1        0.2520
      6 O         143.3185  144.6442  163.2817 O.2     1  UNL1       -0.2698
      7 C         142.9997  142.6021  161.1072 C.3     1  UNL1        0.0938
      8 C         142.8403  141.5810  160.0201 C.3     1  UNL1        0.0232
      9 C         142.2727  142.9890  164.9895 C.ar    1  UNL1        0.0878
     10 C         143.2593  142.4579  165.9868 C.ar    1  UNL1        0.0089
     11 C         142.8160  142.1408  167.3844 C.ar    1  UNL1        0.0187
     12 C         141.3863  142.3548  167.7845 C.ar    1  UNL1        0.1087
     13 C         140.3998  142.8859  166.7872 C.ar    1  UNL1        0.0557
     14 C         140.8430  143.2030  165.3897 C.ar    1  UNL1        0.1524
     15 S         140.9431  142.0377  169.1820 S.O2    1  UNL1        0.0105
     16 C         140.5000  141.7205  170.5795 C.3     1  UNL1        0.1816
     17 O         141.5189  140.6587  169.0517 O.2     1  UNL1       -0.1686
     18 O         140.3674  143.4166  169.3123 O.2     1  UNL1       -0.1686
     19 O         139.8565  143.7341  164.3923 O.3     1  UNL1       -0.4043
     20 C         138.4585  144.0651  164.8234 C.3     1  UNL1        0.5753
     21 F         137.0605  144.3962  165.2546 F       1  UNL1       -0.1328
     22 F         138.9177  145.4209  165.2716 F       1  UNL1       -0.1328
     23 F         137.9992  142.7094  164.3753 F       1  UNL1       -0.1328
     24 C         140.8118  138.7371  159.8841 C.3     1  UNL1        0.0240
     25 C         142.0783  139.2218  159.2431 C.3     1  UNL1        0.1151
     26 C         143.3448  139.7066  158.6021 C.3     1  UNL1        0.0240
     27 S         141.9188  138.2008  158.1559 S.O2    1  UNL1        0.0054
     28 O         143.3905  138.2708  157.8743 O.2     1  UNL1       -0.1687
     29 O         140.4472  138.1308  158.4375 O.2     1  UNL1       -0.1687
     30 C         141.7593  137.1797  157.0686 C.ar    1  UNL1        0.1055
     31 C         140.6251  137.2932  156.0937 C.ar    1  UNL1        0.0183
     32 C         140.4656  136.2722  155.0065 C.ar    1  UNL1        0.0013
     33 C         141.4404  135.1376  154.8943 C.ar    1  UNL1        0.0039
     34 C         142.5747  135.0241  155.8692 C.ar    1  UNL1        0.0727
     35 C         142.7341  136.0452  156.9564 C.ar    1  UNL1        0.0222
     36 C         143.5494  133.8896  155.7570 C.3     1  UNL1        0.4186
     37 F         144.5242  132.7551  155.6448 F       1  UNL1       -0.1659
     38 F         144.2057  134.3272  157.0329 F       1  UNL1       -0.1659
     39 F         142.8932  133.4520  154.4811 F       1  UNL1       -0.1659
@<TRIPOS>BOND
     1    24    25    1
     2    25    26    1
     3    25     1    1
     4     1     2    1
     5     2     3    1
     6     3     4    1
     7     4     5   am
     8     5     6    2
     9     5     9    1
    10     9    10   ar
    11    10    11   ar
    12    11    12   ar
    13    12    15    1
    14    15    16    1
    15    15    17    2
    16    15    18    2
    17    12    13   ar
    18    13    14   ar
    19    14    19    1
    20    19    20    1
    21    20    21    1
    22    20    22    1
    23    20    23    1
    24     4     7    1
    25     7     8    1
    26    25    27    1
    27    27    28    2
    28    27    29    2
    29    27    30    1
    30    30    31   ar
    31    31    32   ar
    32    32    33   ar
    33    33    34   ar
    34    34    36    1
    35    36    37    1
    36    36    38    1
    37    36    39    1
    38    34    35   ar
    39     8     1    1
    40    35    30   ar
    41    14     9   ar
@<TRIPOS>MOLECULE
*****
 39 41 0 0 0
SMALL
GASTEIGER

@<TRIPOS>ATOM
      1 C         140.8693  139.6824  160.8434 C.3     1  UNL1        0.0241
      2 C         141.3511  139.4785  162.2492 C.3     1  UNL1        0.0232
      3 C         140.6902  140.2070  163.3816 C.3     1  UNL1        0.0938
      4 N         139.5475  141.1395  163.1082 N.am    1  UNL1       -0.2760
      5 C         138.8865  141.8680  164.2407 C.2     1  UNL1        0.2520
      6 O         137.7438  142.8005  163.9673 O.2     1  UNL1       -0.2698
      7 C         139.0657  141.3434  161.7024 C.3     1  UNL1        0.0938
      8 C         139.7266  140.6149  160.5701 C.3     1  UNL1        0.0232
      9 C         139.3683  141.6641  165.6465 C.ar    1  UNL1        0.0878
     10 C         140.2239  142.7057  166.3046 C.ar    1  UNL1        0.0089
     11 C         140.7057  142.5017  167.7105 C.ar    1  UNL1        0.0187
     12 C         140.3319  141.2562  168.4581 C.ar    1  UNL1        0.1087
     13 C         139.4763  140.2146  167.8000 C.ar    1  UNL1        0.0557
     14 C         138.9945  140.4186  166.3942 C.ar    1  UNL1        0.1524
     15 S         140.8136  141.0522  169.8639 S.O2    1  UNL1        0.0105
     16 C         141.2954  140.8483  171.2698 C.3     1  UNL1        0.1816
     17 O         140.4407  139.6017  169.7813 O.2     1  UNL1       -0.1686
     18 O         141.1866  142.5028  169.9465 O.2     1  UNL1       -0.1686
     19 O         138.1390  139.3770  165.7360 O.3     1  UNL1       -0.4043
     20 C         138.0149  138.0127  166.3470 C.3     1  UNL1        0.5753
     21 F         137.8909  136.6485  166.9579 F       1  UNL1       -0.1328
     22 F         139.0318  137.4864  165.3781 F       1  UNL1       -0.1328
     23 F         136.9981  138.5391  167.3159 F       1  UNL1       -0.1328
     24 C         140.7978  139.8179  158.7277 C.3     1  UNL1        0.0240
     25 C         141.5303  138.9539  159.7109 C.3     1  UNL1        0.1151
     26 C         142.2627  138.0898  160.6942 C.3     1  UNL1        0.0240
     27 S         142.1911  138.2254  158.5785 S.O2    1  UNL1        0.0054
     28 O         143.4054  138.0026  159.4304 O.2     1  UNL1       -0.1687
     29 O         140.9769  138.4482  157.7266 O.2     1  UNL1       -0.1687
     30 C         142.8520  137.4969  157.4459 C.ar    1  UNL1        0.1055
     31 C         143.4389  138.2665  156.3000 C.ar    1  UNL1        0.0183
     32 C         144.0998  137.5380  155.1675 C.ar    1  UNL1        0.0013
     33 C         144.1737  136.0398  155.1810 C.ar    1  UNL1        0.0039
     34 C         143.5868  135.2702  156.3269 C.ar    1  UNL1        0.0727
     35 C         142.9259  135.9988  157.4594 C.ar    1  UNL1        0.0222
     36 C         143.6607  133.7721  156.3404 C.3     1  UNL1        0.4186
     37 F         143.7346  132.2740  156.3538 F       1  UNL1       -0.1659
     38 F         142.8297  133.7199  155.0927 F       1  UNL1       -0.1659
     39 F         144.4916  133.8243  157.5881 F       1  UNL1       -0.1659
@<TRIPOS>BOND
     1    24    25    1
     2    25    26    1
     3    25     1    1
     4     1     2    1
     5     2     3    1
     6     3     4    1
     7     4     5   am
     8     5     6    2
     9     5     9    1
    10     9    10   ar
    11    10    11   ar
    12    11    12   ar
    13    12    15    1
    14    15    16    1
    15    15    17    2
    16    15    18    2
    17    12    13   ar
    18    13    14   ar
    19    14    19    1
    20    19    20    1
    21    20    21    1
    22    20    22    1
    23    20    23    1
    24     4     7    1
    25     7     8    1
    26    25    27    1
    27    27    28    2
    28    27    29    2
    29    27    30    1
    30    30    31   ar
    31    31    32   ar
    32    32    33   ar
    33    33    34   ar
    34    34    36    1
    35    36    37    1
    36    36    38    1
    37    36    39    1
    38    34    35   ar
    39     8     1    1
    40    35    30   ar
    41    14     9   ar
@<TRIPOS>MOLECULE
*****
 39 41 0 0 0
SMALL
GASTEIGER

@<TRIPOS>ATOM
      1 C         139.2928  140.2128  160.7859 C.3     1  UNL1        0.0241
      2 C         139.4652  141.0130  162.0428 C.3     1  UNL1        0.0232
      3 C         139.9938  140.3561  163.2834 C.3     1  UNL1        0.0938
      4 N         140.3499  138.8991  163.2670 N.am    1  UNL1       -0.2760
      5 C         140.8785  138.2423  164.5077 C.2     1  UNL1        0.2520
      6 O         141.2347  136.7853  164.4914 O.2     1  UNL1       -0.2698
      7 C         140.1775  138.0990  162.0101 C.3     1  UNL1        0.0938
      8 C         139.6490  138.7558  160.7695 C.3     1  UNL1        0.0232
      9 C         141.0509  139.0424  165.7647 C.ar    1  UNL1        0.0878
     10 C         142.4238  139.4464  166.2143 C.ar    1  UNL1        0.0089
     11 C         142.5961  140.2466  167.4713 C.ar    1  UNL1        0.0187
     12 C         141.3957  140.6428  168.2787 C.ar    1  UNL1        0.1087
     13 C         140.0228  140.2388  167.8291 C.ar    1  UNL1        0.0557
     14 C         139.8504  139.4386  166.5721 C.ar    1  UNL1        0.1524
     15 S         141.5681  141.4429  169.5356 S.O2    1  UNL1        0.0105
     16 C         141.7404  142.2431  170.7926 C.3     1  UNL1        0.1816
     17 O         140.4701  142.3665  169.0983 O.2     1  UNL1       -0.1686
     18 O         142.6660  140.5193  169.9730 O.2     1  UNL1       -0.1686
     19 O         138.4776  139.0347  166.1226 O.3     1  UNL1       -0.4043
     20 C         137.8167  137.8288  166.7217 C.3     1  UNL1        0.5753
     21 F         137.1559  136.6229  167.3209 F       1  UNL1       -0.1328
     22 F         137.2790  138.6771  167.8358 F       1  UNL1       -0.1328
     23 F         138.3545  136.9805  165.6077 F       1  UNL1       -0.1328
     24 C         138.4471  142.1052  160.3344 C.3     1  UNL1        0.0240
     25 C         138.7642  140.8697  159.5452 C.3     1  UNL1        0.1151
     26 C         139.0813  139.6342  158.7559 C.3     1  UNL1        0.0240
     27 S         138.2356  141.5265  158.3046 S.O2    1  UNL1        0.0054
     28 O         138.0504  140.1799  157.6705 O.2     1  UNL1       -0.1687
     29 O         138.4209  142.8732  158.9387 O.2     1  UNL1       -0.1687
     30 C         137.7071  142.1835  157.0640 C.ar    1  UNL1        0.1055
     31 C         138.3777  143.4104  156.5211 C.ar    1  UNL1        0.0183
     32 C         137.8491  144.0673  155.2805 C.ar    1  UNL1        0.0013
     33 C         136.6499  143.4972  154.5828 C.ar    1  UNL1        0.0039
     34 C         135.9792  142.2703  155.1257 C.ar    1  UNL1        0.0727
     35 C         136.5078  141.6134  156.3663 C.ar    1  UNL1        0.0222
     36 C         134.7799  141.7002  154.4280 C.3     1  UNL1        0.4186
     37 F         133.5807  141.1301  153.7303 F       1  UNL1       -0.1659
     38 F         134.3509  141.0402  155.7048 F       1  UNL1       -0.1659
     39 F         135.2090  142.3602  153.1512 F       1  UNL1       -0.1659
@<TRIPOS>BOND
     1    24    25    1
     2    25    26    1
     3    25     1    1
     4     1     2    1
     5     2     3    1
     6     3     4    1
     7     4     5   am
     8     5     6    2
     9     5     9    1
    10     9    10   ar
    11    10    11   ar
    12    11    12   ar
    13    12    15    1
    14    15    16    1
    15    15    17    2
    16    15    18    2
    17    12    13   ar
    18    13    14   ar
    19    14    19    1
    20    19    20    1
    21    20    21    1
    22    20    22    1
    23    20    23    1
    24     4     7    1
    25     7     8    1
    26    25    27    1
    27    27    28    2
    28    27    29    2
    29    27    30    1
    30    30    31   ar
    31    31    32   ar
    32    32    33   ar
    33    33    34   ar
    34    34    36    1
    35    36    37    1
    36    36    38    1
    37    36    39    1
    38    34    35   ar
    39     8     1    1
    40    35    30   ar
    41    14     9   ar
@<TRIPOS>MOLECULE
*****
 39 41 0 0 0
SMALL
GASTEIGER

@<TRIPOS>ATOM
      1 C         142.1627  143.3796  160.7307 C.3     1  UNL1        0.0241
      2 C         141.4305  143.0480  161.9971 C.3     1  UNL1        0.0232
      3 C         142.1723  142.4589  163.1601 C.3     1  UNL1        0.0938
      4 N         143.6464  142.2014  163.0567 N.am    1  UNL1       -0.2760
      5 C         144.3883  141.6123  164.2198 C.2     1  UNL1        0.2520
      6 O         145.8624  141.3548  164.1164 O.2     1  UNL1       -0.2698
      7 C         144.3787  142.5330  161.7903 C.3     1  UNL1        0.0938
      8 C         143.6369  143.1220  160.6273 C.3     1  UNL1        0.0232
      9 C         143.6560  141.2807  165.4862 C.ar    1  UNL1        0.0878
     10 C         143.3503  142.3613  166.4807 C.ar    1  UNL1        0.0089
     11 C         142.6179  142.0296  167.7471 C.ar    1  UNL1        0.0187
     12 C         142.1914  140.6176  168.0190 C.ar    1  UNL1        0.1087
     13 C         142.4971  139.5370  167.0246 C.ar    1  UNL1        0.0557
     14 C         143.2294  139.8686  165.7582 C.ar    1  UNL1        0.1524
     15 S         141.4591  140.2860  169.2854 S.O2    1  UNL1        0.0105
     16 C         140.7268  139.9545  170.5519 C.3     1  UNL1        0.1816
     17 O         140.5290  141.4389  169.0494 O.2     1  UNL1       -0.1686
     18 O         142.3892  139.1331  169.5214 O.2     1  UNL1       -0.1686
     19 O         143.5351  138.7880  164.7637 O.3     1  UNL1       -0.4043
     20 C         142.4397  138.2247  163.9077 C.3     1  UNL1        0.5753
     21 F         141.3443  137.6614  163.0518 F       1  UNL1       -0.1328
     22 F         142.8178  139.1671  162.8037 F       1  UNL1       -0.1328
     23 F         142.0616  137.2824  165.0118 F       1  UNL1       -0.1328
     24 C         141.8022  142.7871  158.7260 C.3     1  UNL1        0.0240
     25 C         141.4209  143.9687  159.5676 C.3     1  UNL1        0.1151
     26 C         141.0396  145.1503  160.4092 C.3     1  UNL1        0.0240
     27 S         140.6791  144.5577  158.4046 S.O2    1  UNL1        0.0054
     28 O         141.3830  143.6124  157.4768 O.2     1  UNL1       -0.1687
     29 O         139.9752  145.5031  159.3323 O.2     1  UNL1       -0.1687
     30 C         139.9373  145.1468  157.2415 C.ar    1  UNL1        0.1055
     31 C         139.3681  144.2496  156.1828 C.ar    1  UNL1        0.0183
     32 C         138.6263  144.8387  155.0198 C.ar    1  UNL1        0.0013
     33 C         138.4537  146.3251  154.9155 C.ar    1  UNL1        0.0039
     34 C         139.0229  147.2223  155.9742 C.ar    1  UNL1        0.0727
     35 C         139.7646  146.6332  157.1372 C.ar    1  UNL1        0.0222
     36 C         138.8502  148.7087  155.8699 C.3     1  UNL1        0.4186
     37 F         138.6776  150.1951  155.7656 F       1  UNL1       -0.1659
     38 F         138.4753  148.7670  157.3211 F       1  UNL1       -0.1659
     39 F         139.2252  148.6504  154.4187 F       1  UNL1       -0.1659
@<TRIPOS>BOND
     1    24    25    1
     2    25    26    1
     3    25     1    1
     4     1     2    1
     5     2     3    1
     6     3     4    1
     7     4     5   am
     8     5     6    2
     9     5     9    1
    10     9    10   ar
    11    10    11   ar
    12    11    12   ar
    13    12    15    1
    14    15    16    1
    15    15    17    2
    16    15    18    2
    17    12    13   ar
    18    13    14   ar
    19    14    19    1
    20    19    20    1
    21    20    21    1
    22    20    22    1
    23    20    23    1
    24     4     7    1
    25     7     8    1
    26    25    27    1
    27    27    28    2
    28    27    29    2
    29    27    30    1
    30    30    31   ar
    31    31    32   ar
    32    32    33   ar
    33    33    34   ar
    34    34    36    1
    35    36    37    1
    36    36    38    1
    37    36    39    1
    38    34    35   ar
    39     8     1    1
    40    35    30   ar
    41    14     9   ar
@<TRIPOS>MOLECULE
*****
 39 41 0 0 0
SMALL
GASTEIGER

@<TRIPOS>ATOM
      1 C         141.5575  142.8390  160.3929 C.3     1  UNL1        0.0241
      2 C         141.0836  143.2883  161.7433 C.3     1  UNL1        0.0232
      3 C         141.3448  142.4380  162.9510 C.3     1  UNL1        0.0938
      4 N         142.0798  141.1382  162.8084 N.am    1  UNL1       -0.2760
      5 C         142.3409  140.2878  164.0162 C.2     1  UNL1        0.2520
      6 O         143.0760  138.9881  163.8736 O.2     1  UNL1       -0.2698
      7 C         142.5537  140.6888  161.4581 C.3     1  UNL1        0.0938
      8 C         142.2926  141.5392  160.2503 C.3     1  UNL1        0.0232
      9 C         141.8670  140.7372  165.3665 C.ar    1  UNL1        0.0878
     10 C         142.7849  141.5140  166.2633 C.ar    1  UNL1        0.0089
     11 C         142.3109  141.9634  167.6136 C.ar    1  UNL1        0.0187
     12 C         140.9191  141.6360  168.0672 C.ar    1  UNL1        0.1087
     13 C         140.0013  140.8592  167.1705 C.ar    1  UNL1        0.0557
     14 C         140.4752  140.4098  165.8201 C.ar    1  UNL1        0.1524
     15 S         140.4452  142.0854  169.4175 S.O2    1  UNL1        0.0105
     16 C         139.9713  142.5348  170.7679 C.3     1  UNL1        0.1816
     17 O         139.5091  140.9150  169.4785 O.2     1  UNL1       -0.1686
     18 O         141.3814  143.2558  169.3566 O.2     1  UNL1       -0.1686
     19 O         139.5573  139.6331  164.9234 O.3     1  UNL1       -0.4043
     20 C         138.9933  138.3212  165.3826 C.3     1  UNL1        0.5753
     21 F         138.4292  137.0094  165.8417 F       1  UNL1       -0.1328
     22 F         137.7250  139.0098  165.7917 F       1  UNL1       -0.1328
     23 F         140.2615  137.6327  164.9734 F       1  UNL1       -0.1328
     24 C         141.4513  142.4854  158.3040 C.3     1  UNL1        0.0240
     25 C         141.2964  143.6893  159.1851 C.3     1  UNL1        0.1151
     26 C         141.1415  144.8933  160.0662 C.3     1  UNL1        0.0240
     27 S         141.0353  144.5396  157.9774 S.O2    1  UNL1        0.0054
     28 O         140.0442  143.5294  157.4804 O.2     1  UNL1       -0.1687
     29 O         142.0264  145.5499  158.4743 O.2     1  UNL1       -0.1687
     30 C         140.7742  145.3900  156.7695 C.ar    1  UNL1        0.1055
     31 C         141.3444  144.9979  155.4387 C.ar    1  UNL1        0.0183
     32 C         141.0833  145.8482  154.2310 C.ar    1  UNL1        0.0013
     33 C         140.2520  147.0907  154.3541 C.ar    1  UNL1        0.0039
     34 C         139.6818  147.4829  155.6849 C.ar    1  UNL1        0.0727
     35 C         139.9429  146.6325  156.8926 C.ar    1  UNL1        0.0222
     36 C         138.8505  148.7254  155.8079 C.3     1  UNL1        0.4186
     37 F         138.0192  149.9678  155.9310 F       1  UNL1       -0.1659
     38 F         138.4765  148.3365  157.2075 F       1  UNL1       -0.1659
     39 F         139.2244  149.1142  154.4083 F       1  UNL1       -0.1659
@<TRIPOS>BOND
     1    24    25    1
     2    25    26    1
     3    25     1    1
     4     1     2    1
     5     2     3    1
     6     3     4    1
     7     4     5   am
     8     5     6    2
     9     5     9    1
    10     9    10   ar
    11    10    11   ar
    12    11    12   ar
    13    12    15    1
    14    15    16    1
    15    15    17    2
    16    15    18    2
    17    12    13   ar
    18    13    14   ar
    19    14    19    1
    20    19    20    1
    21    20    21    1
    22    20    22    1
    23    20    23    1
    24     4     7    1
    25     7     8    1
    26    25    27    1
    27    27    28    2
    28    27    29    2
    29    27    30    1
    30    30    31   ar
    31    31    32   ar
    32    32    33   ar
    33    33    34   ar
    34    34    36    1
    35    36    37    1
    36    36    38    1
    37    36    39    1
    38    34    35   ar
    39     8     1    1
    40    35    30   ar
    41    14     9   ar
@<TRIPOS>MOLECULE
*****
 39 41 0 0 0
SMALL
GASTEIGER

@<TRIPOS>ATOM
      1 C         142.1071  139.6012  162.5165 C.3     1  UNL1        0.0241
      2 C         141.0537  139.1853  161.5330 C.3     1  UNL1        0.0232
      3 C         141.3819  139.1051  160.0716 C.3     1  UNL1        0.0938
      4 N         142.7636  139.4408  159.5937 N.am    1  UNL1       -0.2760
      5 C         143.0918  139.3606  158.1322 C.2     1  UNL1        0.2520
      6 O         144.4734  139.6963  157.6543 O.2     1  UNL1       -0.2698
      7 C         143.8170  139.8567  160.5772 C.3     1  UNL1        0.0938
      8 C         143.4887  139.9369  162.0386 C.3     1  UNL1        0.0232
      9 C         142.0384  138.9448  157.1487 C.ar    1  UNL1        0.0878
     10 C         141.1406  139.9753  156.5306 C.ar    1  UNL1        0.0089
     11 C         140.0871  139.5594  155.5471 C.ar    1  UNL1        0.0187
     12 C         139.9315  138.1130  155.1816 C.ar    1  UNL1        0.1087
     13 C         140.8293  137.0824  155.7996 C.ar    1  UNL1        0.0557
     14 C         141.8827  137.4983  156.7831 C.ar    1  UNL1        0.1524
     15 S         138.8781  137.6971  154.1980 S.O2    1  UNL1        0.0105
     16 C         137.8247  137.2812  153.2145 C.3     1  UNL1        0.1816
     17 O         138.0792  137.0874  155.3115 O.2     1  UNL1       -0.1686
     18 O         139.6771  138.3068  153.0845 O.2     1  UNL1       -0.1686
     19 O         142.7805  136.4677  157.4011 O.3     1  UNL1       -0.4043
     20 C         143.4783  135.4632  156.5328 C.3     1  UNL1        0.5753
     21 F         144.1760  134.4587  155.6644 F       1  UNL1       -0.1328
     22 F         142.6751  134.3628  157.1603 F       1  UNL1       -0.1328
     23 F         144.2815  136.5636  155.9052 F       1  UNL1       -0.1328
     24 C         141.9297  138.1935  164.0935 C.3     1  UNL1        0.0240
     25 C         141.7788  139.6814  163.9780 C.3     1  UNL1        0.1151
     26 C         141.6279  141.1693  163.8625 C.3     1  UNL1        0.0240
     27 S         141.4506  139.7616  165.4394 S.O2    1  UNL1        0.0054
     28 O         141.6566  141.2469  165.4042 O.2     1  UNL1       -0.1687
     29 O         141.2447  138.2762  165.4746 O.2     1  UNL1       -0.1687
     30 C         141.1224  139.8417  166.9009 C.ar    1  UNL1        0.1055
     31 C         139.7223  140.1541  167.3392 C.ar    1  UNL1        0.0183
     32 C         139.3942  140.2342  168.8006 C.ar    1  UNL1        0.0013
     33 C         140.4661  140.0018  169.8238 C.ar    1  UNL1        0.0039
     34 C         141.8662  139.6894  169.3856 C.ar    1  UNL1        0.0727
     35 C         142.1943  139.6093  167.9242 C.ar    1  UNL1        0.0222
     36 C         142.9381  139.4570  170.4088 C.3     1  UNL1        0.4186
     37 F         144.0100  139.2246  171.4320 F       1  UNL1       -0.1659
     38 F         143.0729  140.9381  170.6040 F       1  UNL1       -0.1659
     39 F         142.8034  137.9759  170.2136 F       1  UNL1       -0.1659
@<TRIPOS>BOND
     1    24    25    1
     2    25    26    1
     3    25     1    1
     4     1     2    1
     5     2     3    1
     6     3     4    1
     7     4     5   am
     8     5     6    2
     9     5     9    1
    10     9    10   ar
    11    10    11   ar
    12    11    12   ar
    13    12    15    1
    14    15    16    1
    15    15    17    2
    16    15    18    2
    17    12    13   ar
    18    13    14   ar
    19    14    19    1
    20    19    20    1
    21    20    21    1
    22    20    22    1
    23    20    23    1
    24     4     7    1
    25     7     8    1
    26    25    27    1
    27    27    28    2
    28    27    29    2
    29    27    30    1
    30    30    31   ar
    31    31    32   ar
    32    32    33   ar
    33    33    34   ar
    34    34    36    1
    35    36    37    1
    36    36    38    1
    37    36    39    1
    38    34    35   ar
    39     8     1    1
    40    35    30   ar
    41    14     9   ar
@<TRIPOS>MOLECULE
*****
 39 41 0 0 0
SMALL
GASTEIGER

@<TRIPOS>ATOM
      1 C         140.0668  142.9831  160.3269 C.3     1  UNL1        0.0241
      2 C         140.6330  143.5026  161.6151 C.3     1  UNL1        0.0232
      3 C         140.6483  142.6287  162.8341 C.3     1  UNL1        0.0938
      4 N         140.0973  141.2353  162.7649 N.am    1  UNL1       -0.2760
      5 C         140.1126  140.3614  163.9840 C.2     1  UNL1        0.2520
      6 O         139.5616  138.9679  163.9149 O.2     1  UNL1       -0.2698
      7 C         139.5311  140.7157  161.4768 C.3     1  UNL1        0.0938
      8 C         139.5158  141.5896  160.2577 C.3     1  UNL1        0.0232
      9 C         140.6789  140.8809  165.2722 C.ar    1  UNL1        0.0878
     10 C         139.7601  141.3736  166.3507 C.ar    1  UNL1        0.0089
     11 C         140.3265  141.8931  167.6389 C.ar    1  UNL1        0.0187
     12 C         141.8115  141.9200  167.8485 C.ar    1  UNL1        0.1087
     13 C         142.7302  141.4273  166.7700 C.ar    1  UNL1        0.0557
     14 C         142.1640  140.9078  165.4819 C.ar    1  UNL1        0.1524
     15 S         142.3777  142.4395  169.1367 S.O2    1  UNL1        0.0105
     16 C         142.9441  142.9591  170.4249 C.3     1  UNL1        0.1816
     17 O         143.6992  142.6665  168.4643 O.2     1  UNL1       -0.1686
     18 O         141.0563  142.2125  169.8091 O.2     1  UNL1       -0.1686
     19 O         143.0827  140.4151  164.4034 O.3     1  UNL1       -0.4043
     20 C         144.2962  139.6096  164.7619 C.3     1  UNL1        0.5753
     21 F         145.5096  138.8041  165.1205 F       1  UNL1       -0.1328
     22 F         145.1727  140.7778  164.4201 F       1  UNL1       -0.1328
     23 F         143.4197  138.4413  165.1037 F       1  UNL1       -0.1328
     24 C         140.3690  145.0503  159.9593 C.3     1  UNL1        0.0240
     25 C         140.0515  143.8570  159.1078 C.3     1  UNL1        0.1151
     26 C         139.7340  142.6637  158.2563 C.3     1  UNL1        0.0240
     27 S         140.0362  144.7309  157.8888 S.O2    1  UNL1        0.0054
     28 O         139.9512  143.5133  157.0170 O.2     1  UNL1       -0.1687
     29 O         140.1211  145.9485  158.7606 O.2     1  UNL1       -0.1687
     30 C         140.0209  145.6049  156.6698 C.ar    1  UNL1        0.1055
     31 C         140.6209  145.1124  155.3863 C.ar    1  UNL1        0.0183
     32 C         140.6056  145.9864  154.1673 C.ar    1  UNL1        0.0013
     33 C         139.9903  147.3528  154.2319 C.ar    1  UNL1        0.0039
     34 C         139.3903  147.8453  155.5154 C.ar    1  UNL1        0.0727
     35 C         139.4056  146.9714  156.7343 C.ar    1  UNL1        0.0222
     36 C         138.7750  149.2118  155.5799 C.3     1  UNL1        0.4186
     37 F         138.1597  150.5783  155.6445 F       1  UNL1       -0.1659
     38 F         138.3069  148.9350  156.9779 F       1  UNL1       -0.1659
     39 F         139.2431  149.4886  154.1820 F       1  UNL1       -0.1659
@<TRIPOS>BOND
     1    24    25    1
     2    25    26    1
     3    25     1    1
     4     1     2    1
     5     2     3    1
     6     3     4    1
     7     4     5   am
     8     5     6    2
     9     5     9    1
    10     9    10   ar
    11    10    11   ar
    12    11    12   ar
    13    12    15    1
    14    15    16    1
    15    15    17    2
    16    15    18    2
    17    12    13   ar
    18    13    14   ar
    19    14    19    1
    20    19    20    1
    21    20    21    1
    22    20    22    1
    23    20    23    1
    24     4     7    1
    25     7     8    1
    26    25    27    1
    27    27    28    2
    28    27    29    2
    29    27    30    1
    30    30    31   ar
    31    31    32   ar
    32    32    33   ar
    33    33    34   ar
    34    34    36    1
    35    36    37    1
    36    36    38    1
    37    36    39    1
    38    34    35   ar
    39     8     1    1
    40    35    30   ar
    41    14     9   ar
