@<TRIPOS>MOLECULE
*****
 39 43 0 0 0
SMALL
GASTEIGER

@<TRIPOS>ATOM
      1 C         138.1091  140.1599  162.7323 C.3     1  UNL1        0.0162
      2 C         137.8561  140.9654  163.9721 C.3     1  UNL1        0.0028
      3 C         137.7251  142.4571  163.8836 C.3     1  UNL1        0.0158
      4 C         137.8470  143.1432  162.5553 C.3     1  UNL1        0.0543
      5 C         138.1000  142.3376  161.3155 C.3     1  UNL1        0.0158
      6 C         138.2310  140.8460  161.4040 C.3     1  UNL1        0.0028
      7 C         138.2402  138.6682  162.8208 C.3     1  UNL1        0.0737
      8 N         137.7101  137.8020  161.7168 N.3     1  UNL1       -0.3206
      9 H         137.2967  138.3892  160.9925 H       1  UNL1        0.1189
     10 H         137.0000  137.1720  162.0901 H       1  UNL1        0.1189
     11 C         138.9013  138.0429  164.0132 C.3     1  UNL1        0.1244
     12 C         144.6914  139.1322  165.1481 C.3     1  UNL1        0.0312
     13 C         143.2439  138.8599  164.8643 C.ar    1  UNL1       -0.0157
     14 C         142.8420  138.2103  163.5735 C.ar    1  UNL1        0.0565
     15 C         141.3944  137.9379  163.2898 C.ar    1  UNL1        0.2607
     16 O         140.9925  137.2882  161.9988 O.2     1  UNL1       -0.2670
     17 N         140.3488  138.3152  164.2969 N.ar    1  UNL1       -0.2941
     18 C         140.7508  138.9649  165.5878 C.ar    1  UNL1        0.0644
     19 C         139.7052  139.3422  166.5950 C.ar    1  UNL1        0.0469
     20 C         140.1071  139.9918  167.8858 C.ar    1  UNL1        0.1416
     21 F         139.0615  140.3692  168.8930 F       1  UNL1       -0.2041
     22 C         141.5546  140.2642  168.1695 C.ar    1  UNL1        0.0297
     23 C         142.6002  139.8869  167.1624 C.ar    1  UNL1        0.0034
     24 C         142.1983  139.2372  165.8716 C.ar    1  UNL1        0.0122
     25 N         137.7159  144.6348  162.4668 N.3     1  UNL1       -0.2922
     26 H         137.0232  144.9113  163.1625 H       1  UNL1        0.1236
     27 C         138.9172  145.5073  162.6812 C.3     1  UNL1        0.1353
     28 C         140.2913  144.9059  162.6764 C.ar    1  UNL1        0.1567
     29 N         141.0310  144.7151  163.9674 N.ar    1  UNL1       -0.2245
     30 C         142.4052  144.1137  163.9626 C.ar    1  UNL1        0.1400
     31 C         143.0397  143.7032  162.6668 C.ar    1  UNL1        0.1898
     32 C         142.3000  143.8941  161.3759 C.ar    1  UNL1        0.1715
     33 N         140.9258  144.4955  161.3807 N.ar    1  UNL1       -0.2113
     34 N         142.9345  143.4837  160.0802 N.am    1  UNL1       -0.2638
     35 C         144.3087  142.8823  160.0754 C.2     1  UNL1        0.2718
     36 O         144.9432  142.4718  158.7796 O.2     1  UNL1       -0.2707
     37 C         145.0484  142.6914  161.3663 C.3     1  UNL1        0.2899
     38 O         144.4139  143.1019  162.6620 O.3     1  UNL1       -0.4612
     39 H         142.4491  143.6089  159.2330 H       1  UNL1        0.1565
@<TRIPOS>BOND
     1    12    13    1
     2    13    14   ar
     3    14    15   ar
     4    15    16    2
     5    15    17   ar
     6    17    11    1
     7    11     7    1
     8     7     8    1
     9     7     1    1
    10     1     2    1
    11     2     3    1
    12     3     4    1
    13     4    25    1
    14    25    27    1
    15    27    28    1
    16    28    29   ar
    17    29    30   ar
    18    30    31   ar
    19    31    32   ar
    20    32    33   ar
    21    32    34    1
    22    34    35   am
    23    35    36    2
    24    35    37    1
    25    37    38    1
    26     4     5    1
    27     5     6    1
    28    17    18   ar
    29    18    19   ar
    30    19    20   ar
    31    20    21    1
    32    20    22   ar
    33    22    23   ar
    34    23    24   ar
    35    24    13   ar
    36     6     1    1
    37    24    18   ar
    38    33    28   ar
    39    38    31    1
    40     8     9    1
    41     8    10    1
    42    25    26    1
    43    34    39    1
@<TRIPOS>MOLECULE
*****
 39 43 0 0 0
SMALL
GASTEIGER

@<TRIPOS>ATOM
      1 C         138.2791  140.2592  164.4441 C.3     1  UNL1        0.0162
      2 C         138.7336  141.4666  165.2094 C.3     1  UNL1        0.0028
      3 C         138.5116  142.8390  164.6461 C.3     1  UNL1        0.0158
      4 C         137.8350  143.0039  163.3175 C.3     1  UNL1        0.0543
      5 C         137.3806  141.7965  162.5523 C.3     1  UNL1        0.0158
      6 C         137.6026  140.4241  163.1156 C.3     1  UNL1        0.0028
      7 C         138.5012  138.8868  165.0074 C.3     1  UNL1        0.0737
      8 N         138.1127  138.5860  166.4247 N.3     1  UNL1       -0.3206
      9 H         137.7165  139.4224  166.8535 H       1  UNL1        0.1189
     10 H         138.9376  138.2935  166.9486 H       1  UNL1        0.1189
     11 C         139.1116  137.8153  164.1535 C.3     1  UNL1        0.1244
     12 C         143.8582  139.0688  160.7041 C.3     1  UNL1        0.0312
     13 C         142.6716  138.7554  161.5664 C.ar    1  UNL1       -0.0157
     14 C         141.3463  138.4472  160.9353 C.ar    1  UNL1        0.0565
     15 C         140.1596  138.1338  161.7976 C.ar    1  UNL1        0.2607
     16 O         138.8342  137.8255  161.1664 O.2     1  UNL1       -0.2670
     17 N         140.2983  138.1287  163.2912 N.ar    1  UNL1       -0.2941
     18 C         141.6237  138.4370  163.9224 C.ar    1  UNL1        0.0644
     19 C         141.7623  138.4319  165.4159 C.ar    1  UNL1        0.0469
     20 C         143.0876  138.7401  166.0471 C.ar    1  UNL1        0.1416
     21 F         143.2264  138.7350  167.5407 F       1  UNL1       -0.2041
     22 C         144.2743  139.0535  165.1848 C.ar    1  UNL1        0.0297
     23 C         144.1356  139.0586  163.6912 C.ar    1  UNL1        0.0034
     24 C         142.8103  138.7503  163.0601 C.ar    1  UNL1        0.0122
     25 N         137.6130  144.3763  162.7542 N.3     1  UNL1       -0.2922
     26 H         136.9851  144.8600  163.3962 H       1  UNL1        0.1236
     27 C         138.7803  145.2888  162.5201 C.3     1  UNL1        0.1353
     28 C         139.9779  144.7955  161.7634 C.ar    1  UNL1        0.1567
     29 N         140.0402  144.9523  160.2729 N.ar    1  UNL1       -0.2245
     30 C         141.2377  144.4591  159.5163 C.ar    1  UNL1        0.1400
     31 C         142.3731  143.8090  160.2502 C.ar    1  UNL1        0.1898
     32 C         142.3107  143.6522  161.7406 C.ar    1  UNL1        0.1715
     33 N         141.1132  144.1455  162.4973 N.ar    1  UNL1       -0.2113
     34 N         143.4460  143.0022  162.4745 N.am    1  UNL1       -0.2638
     35 C         144.6436  142.5089  161.7179 C.2     1  UNL1        0.2718
     36 O         145.7789  141.8589  162.4518 O.2     1  UNL1       -0.2707
     37 C         144.7059  142.6657  160.2274 C.3     1  UNL1        0.2899
     38 O         143.5707  143.3158  159.4936 O.3     1  UNL1       -0.4612
     39 H         143.4051  142.8993  163.4527 H       1  UNL1        0.1565
@<TRIPOS>BOND
     1    12    13    1
     2    13    14   ar
     3    14    15   ar
     4    15    16    2
     5    15    17   ar
     6    17    11    1
     7    11     7    1
     8     7     8    1
     9     7     1    1
    10     1     2    1
    11     2     3    1
    12     3     4    1
    13     4    25    1
    14    25    27    1
    15    27    28    1
    16    28    29   ar
    17    29    30   ar
    18    30    31   ar
    19    31    32   ar
    20    32    33   ar
    21    32    34    1
    22    34    35   am
    23    35    36    2
    24    35    37    1
    25    37    38    1
    26     4     5    1
    27     5     6    1
    28    17    18   ar
    29    18    19   ar
    30    19    20   ar
    31    20    21    1
    32    20    22   ar
    33    22    23   ar
    34    23    24   ar
    35    24    13   ar
    36     6     1    1
    37    24    18   ar
    38    33    28   ar
    39    38    31    1
    40     8     9    1
    41     8    10    1
    42    25    26    1
    43    34    39    1
@<TRIPOS>MOLECULE
*****
 39 43 0 0 0
SMALL
GASTEIGER

@<TRIPOS>ATOM
      1 C         143.9324  142.7741  163.3983 C.3     1  UNL1        0.0162
      2 C         143.4066  142.9339  162.0026 C.3     1  UNL1        0.0028
      3 C         142.4174  144.0184  161.6934 C.3     1  UNL1        0.0158
      4 C         141.9542  144.9430  162.7800 C.3     1  UNL1        0.0543
      5 C         142.4800  144.7831  164.1757 C.3     1  UNL1        0.0158
      6 C         143.4692  143.6987  164.4848 C.3     1  UNL1        0.0028
      7 C         144.9216  141.6897  163.7075 C.3     1  UNL1        0.0737
      8 N         146.3125  141.7622  163.1505 N.3     1  UNL1       -0.3206
      9 H         146.4104  142.6083  162.5893 H       1  UNL1        0.1189
     10 H         146.4880  140.9446  162.5664 H       1  UNL1        0.1189
     11 C         144.5199  140.5327  164.5735 C.3     1  UNL1        0.1244
     12 C         139.2447  137.8138  163.6905 C.3     1  UNL1        0.0312
     13 C         140.5635  138.4936  163.9113 C.ar    1  UNL1       -0.0157
     14 C         141.7043  138.2407  162.9708 C.ar    1  UNL1        0.0565
     15 C         143.0231  138.9204  163.1916 C.ar    1  UNL1        0.2607
     16 O         144.1639  138.6674  162.2510 O.2     1  UNL1       -0.2670
     17 N         143.2011  139.8530  164.3528 N.ar    1  UNL1       -0.2941
     18 C         142.0602  140.1060  165.2933 C.ar    1  UNL1        0.0644
     19 C         142.2382  141.0386  166.4545 C.ar    1  UNL1        0.0469
     20 C         141.0974  141.2915  167.3950 C.ar    1  UNL1        0.1416
     21 F         141.2753  142.2242  168.5563 F       1  UNL1       -0.2041
     22 C         139.7786  140.6118  167.1742 C.ar    1  UNL1        0.0297
     23 C         139.6006  139.6791  166.0130 C.ar    1  UNL1        0.0034
     24 C         140.7414  139.4262  165.0726 C.ar    1  UNL1        0.0122
     25 N         140.9650  146.0274  162.4709 N.3     1  UNL1       -0.2922
     26 H         141.1305  146.3103  161.5050 H       1  UNL1        0.1236
     27 C         139.4945  145.7597  162.5978 C.3     1  UNL1        0.1353
     28 C         138.9629  144.3741  162.3799 C.ar    1  UNL1        0.1567
     29 N         138.3894  143.6013  163.5305 N.ar    1  UNL1       -0.2245
     30 C         137.8578  142.2157  163.3126 C.ar    1  UNL1        0.1400
     31 C         137.8997  141.6029  161.9440 C.ar    1  UNL1        0.1898
     32 C         138.4732  142.3757  160.7935 C.ar    1  UNL1        0.1715
     33 N         139.0048  143.7613  161.0114 N.ar    1  UNL1       -0.2113
     34 N         138.5151  141.7629  159.4251 N.am    1  UNL1       -0.2638
     35 C         137.9836  140.3773  159.2071 C.2     1  UNL1        0.2718
     36 O         138.0255  139.7645  157.8386 O.2     1  UNL1       -0.2707
     37 C         137.4100  139.6045  160.3577 C.3     1  UNL1        0.2899
     38 O         137.3681  140.2173  161.7261 O.3     1  UNL1       -0.4612
     39 H         138.8916  142.2702  158.6699 H       1  UNL1        0.1565
@<TRIPOS>BOND
     1    12    13    1
     2    13    14   ar
     3    14    15   ar
     4    15    16    2
     5    15    17   ar
     6    17    11    1
     7    11     7    1
     8     7     8    1
     9     7     1    1
    10     1     2    1
    11     2     3    1
    12     3     4    1
    13     4    25    1
    14    25    27    1
    15    27    28    1
    16    28    29   ar
    17    29    30   ar
    18    30    31   ar
    19    31    32   ar
    20    32    33   ar
    21    32    34    1
    22    34    35   am
    23    35    36    2
    24    35    37    1
    25    37    38    1
    26     4     5    1
    27     5     6    1
    28    17    18   ar
    29    18    19   ar
    30    19    20   ar
    31    20    21    1
    32    20    22   ar
    33    22    23   ar
    34    23    24   ar
    35    24    13   ar
    36     6     1    1
    37    24    18   ar
    38    33    28   ar
    39    38    31    1
    40     8     9    1
    41     8    10    1
    42    25    26    1
    43    34    39    1
@<TRIPOS>MOLECULE
*****
 39 43 0 0 0
SMALL
GASTEIGER

@<TRIPOS>ATOM
      1 C         140.3234  143.5350  164.9106 C.3     1  UNL1        0.0162
      2 C         140.9108  142.6222  165.9459 C.3     1  UNL1        0.0028
      3 C         142.3665  142.2647  165.8915 C.3     1  UNL1        0.0158
      4 C         143.2350  142.8200  164.8017 C.3     1  UNL1        0.0543
      5 C         142.6476  143.7327  163.7664 C.3     1  UNL1        0.0158
      6 C         141.1918  144.0902  163.8209 C.3     1  UNL1        0.0028
      7 C         138.8677  143.8925  164.9650 C.3     1  UNL1        0.0737
      8 N         138.4338  145.1738  165.6132 N.3     1  UNL1       -0.3206
      9 H         139.2525  145.6738  165.9597 H       1  UNL1        0.1189
     10 H         137.8077  144.9662  166.3912 H       1  UNL1        0.1189
     11 C         137.8458  142.9687  164.3713 C.3     1  UNL1        0.1244
     12 C         139.5805  138.4873  160.7787 C.3     1  UNL1        0.0312
     13 C         139.1469  139.6076  161.6768 C.ar    1  UNL1       -0.0157
     14 C         138.9822  140.9919  161.1232 C.ar    1  UNL1        0.0565
     15 C         138.5485  142.1123  162.0213 C.ar    1  UNL1        0.2607
     16 O         138.3839  143.4966  161.4676 O.2     1  UNL1       -0.2670
     17 N         138.2795  141.8484  163.4732 N.ar    1  UNL1       -0.2941
     18 C         138.4442  140.4640  164.0269 C.ar    1  UNL1        0.0644
     19 C         138.1752  140.2001  165.4788 C.ar    1  UNL1        0.0469
     20 C         138.3398  138.8158  166.0325 C.ar    1  UNL1        0.1416
     21 F         138.0708  138.5518  167.4844 F       1  UNL1       -0.2041
     22 C         138.7735  137.6955  165.1343 C.ar    1  UNL1        0.0297
     23 C         139.0425  137.9594  163.6825 C.ar    1  UNL1        0.0034
     24 C         138.8778  139.3437  163.1288 C.ar    1  UNL1        0.0122
     25 N         144.6907  142.4625  164.7473 N.3     1  UNL1       -0.2922
     26 H         144.8259  141.6800  165.3874 H       1  UNL1        0.1236
     27 C         145.3179  142.0683  163.4429 C.3     1  UNL1        0.1353
     28 C         144.7297  140.9490  162.6358 C.ar    1  UNL1        0.1567
     29 N         144.4545  139.6232  163.2812 N.ar    1  UNL1       -0.2245
     30 C         143.8664  138.5039  162.4742 C.ar    1  UNL1        0.1400
     31 C         143.5534  138.7105  161.0217 C.ar    1  UNL1        0.1898
     32 C         143.8286  140.0363  160.3765 C.ar    1  UNL1        0.1715
     33 N         144.4168  141.1556  161.1835 N.ar    1  UNL1       -0.2113
     34 N         143.5156  140.2429  158.9241 N.am    1  UNL1       -0.2638
     35 C         142.9274  139.1236  158.1171 C.2     1  UNL1        0.2718
     36 O         142.6145  139.3303  156.6647 O.2     1  UNL1       -0.2707
     37 C         142.6522  137.7978  158.7624 C.3     1  UNL1        0.2899
     38 O         142.9652  137.5913  160.2147 O.3     1  UNL1       -0.4612
     39 H         143.6962  141.1131  158.5006 H       1  UNL1        0.1565
@<TRIPOS>BOND
     1    12    13    1
     2    13    14   ar
     3    14    15   ar
     4    15    16    2
     5    15    17   ar
     6    17    11    1
     7    11     7    1
     8     7     8    1
     9     7     1    1
    10     1     2    1
    11     2     3    1
    12     3     4    1
    13     4    25    1
    14    25    27    1
    15    27    28    1
    16    28    29   ar
    17    29    30   ar
    18    30    31   ar
    19    31    32   ar
    20    32    33   ar
    21    32    34    1
    22    34    35   am
    23    35    36    2
    24    35    37    1
    25    37    38    1
    26     4     5    1
    27     5     6    1
    28    17    18   ar
    29    18    19   ar
    30    19    20   ar
    31    20    21    1
    32    20    22   ar
    33    22    23   ar
    34    23    24   ar
    35    24    13   ar
    36     6     1    1
    37    24    18   ar
    38    33    28   ar
    39    38    31    1
    40     8     9    1
    41     8    10    1
    42    25    26    1
    43    34    39    1
@<TRIPOS>MOLECULE
*****
 39 43 0 0 0
SMALL
GASTEIGER

@<TRIPOS>ATOM
      1 C         141.9036  138.5952  165.1925 C.3     1  UNL1        0.0162
      2 C         140.4452  138.3734  165.4645 C.3     1  UNL1        0.0028
      3 C         139.5114  138.0556  164.3344 C.3     1  UNL1        0.0158
      4 C         140.0361  137.9595  162.9324 C.3     1  UNL1        0.0543
      5 C         141.4945  138.1812  162.6605 C.3     1  UNL1        0.0158
      6 C         142.4282  138.4991  163.7906 C.3     1  UNL1        0.0028
      7 C         142.8374  138.9130  166.3226 C.3     1  UNL1        0.0737
      8 N         143.8268  137.8866  166.7893 N.3     1  UNL1       -0.3206
      9 H         143.7260  137.0388  166.2312 H       1  UNL1        0.1189
     10 H         143.6544  137.6700  167.7710 H       1  UNL1        0.1189
     11 C         142.7818  140.2572  166.9860 C.3     1  UNL1        0.1244
     12 C         140.0860  144.8541  164.2290 C.3     1  UNL1        0.0312
     13 C         140.7600  143.7049  164.9183 C.ar    1  UNL1       -0.0157
     14 C         140.0638  142.9890  166.0375 C.ar    1  UNL1        0.0565
     15 C         140.7378  141.8398  166.7268 C.ar    1  UNL1        0.2607
     16 O         140.0416  141.1239  167.8461 O.2     1  UNL1       -0.2670
     17 N         142.1079  141.4064  166.2967 N.ar    1  UNL1       -0.2941
     18 C         142.8041  142.1223  165.1774 C.ar    1  UNL1        0.0644
     19 C         144.1742  141.6890  164.7473 C.ar    1  UNL1        0.0469
     20 C         144.8703  142.4049  163.6280 C.ar    1  UNL1        0.1416
     21 F         146.2405  141.9715  163.1979 F       1  UNL1       -0.2041
     22 C         144.1964  143.5541  162.9388 C.ar    1  UNL1        0.0297
     23 C         142.8263  143.9874  163.3689 C.ar    1  UNL1        0.0034
     24 C         142.1301  143.2716  164.4881 C.ar    1  UNL1        0.0122
     25 N         139.1024  137.6416  161.8023 N.3     1  UNL1       -0.2922
     26 H         138.6228  136.7764  162.0510 H       1  UNL1        0.1236
     27 C         138.0420  138.6259  161.4061 C.3     1  UNL1        0.1353
     28 C         138.3754  140.0844  161.2978 C.ar    1  UNL1        0.1567
     29 N         137.4970  141.1055  161.9581 N.ar    1  UNL1       -0.2245
     30 C         137.8304  142.5640  161.8499 C.ar    1  UNL1        0.1400
     31 C         139.0421  143.0013  161.0813 C.ar    1  UNL1        0.1898
     32 C         139.9204  141.9803  160.4211 C.ar    1  UNL1        0.1715
     33 N         139.5870  140.5218  160.5294 N.ar    1  UNL1       -0.2113
     34 N         141.1320  142.4176  159.6527 N.am    1  UNL1       -0.2638
     35 C         141.4654  143.8761  159.5444 C.2     1  UNL1        0.2718
     36 O         142.6771  144.3135  158.7759 O.2     1  UNL1       -0.2707
     37 C         140.5871  144.8972  160.2046 C.3     1  UNL1        0.2899
     38 O         139.3755  144.4598  160.9731 O.3     1  UNL1       -0.4612
     39 H         141.7085  141.7475  159.2193 H       1  UNL1        0.1565
@<TRIPOS>BOND
     1    12    13    1
     2    13    14   ar
     3    14    15   ar
     4    15    16    2
     5    15    17   ar
     6    17    11    1
     7    11     7    1
     8     7     8    1
     9     7     1    1
    10     1     2    1
    11     2     3    1
    12     3     4    1
    13     4    25    1
    14    25    27    1
    15    27    28    1
    16    28    29   ar
    17    29    30   ar
    18    30    31   ar
    19    31    32   ar
    20    32    33   ar
    21    32    34    1
    22    34    35   am
    23    35    36    2
    24    35    37    1
    25    37    38    1
    26     4     5    1
    27     5     6    1
    28    17    18   ar
    29    18    19   ar
    30    19    20   ar
    31    20    21    1
    32    20    22   ar
    33    22    23   ar
    34    23    24   ar
    35    24    13   ar
    36     6     1    1
    37    24    18   ar
    38    33    28   ar
    39    38    31    1
    40     8     9    1
    41     8    10    1
    42    25    26    1
    43    34    39    1
@<TRIPOS>MOLECULE
*****
 39 43 0 0 0
SMALL
GASTEIGER

@<TRIPOS>ATOM
      1 C         142.9853  140.1663  166.1189 C.3     1  UNL1        0.0162
      2 C         143.4025  141.5953  165.9345 C.3     1  UNL1        0.0028
      3 C         144.1747  141.9995  164.7137 C.3     1  UNL1        0.0158
      4 C         144.5297  140.9747  163.6774 C.3     1  UNL1        0.0543
      5 C         144.1125  139.5458  163.8618 C.3     1  UNL1        0.0158
      6 C         143.3403  139.1416  165.0826 C.3     1  UNL1        0.0028
      7 C         142.2131  139.7620  167.3397 C.3     1  UNL1        0.0737
      8 N         142.9226  139.1317  168.5013 N.3     1  UNL1       -0.3206
      9 H         143.9177  139.0548  168.2909 H       1  UNL1        0.1189
     10 H         142.5382  138.2023  168.6709 H       1  UNL1        0.1189
     11 C         140.7315  139.9881  167.3989 C.3     1  UNL1        0.1244
     12 C         138.1776  144.0875  163.8390 C.3     1  UNL1        0.0312
     13 C         138.8160  143.0626  164.7290 C.ar    1  UNL1       -0.0157
     14 C         139.4961  143.4889  165.9962 C.ar    1  UNL1        0.0565
     15 C         140.1345  142.4641  166.8861 C.ar    1  UNL1        0.2607
     16 O         140.8146  142.8905  168.1534 O.2     1  UNL1       -0.2670
     17 N         140.0930  141.0129  166.5089 N.ar    1  UNL1       -0.2941
     18 C         139.4129  140.5865  165.2417 C.ar    1  UNL1        0.0644
     19 C         139.3714  139.1354  164.8645 C.ar    1  UNL1        0.0469
     20 C         138.6913  138.7090  163.5973 C.ar    1  UNL1        0.1416
     21 F         138.6497  137.2578  163.2201 F       1  UNL1       -0.2041
     22 C         138.0529  139.7339  162.7074 C.ar    1  UNL1        0.0297
     23 C         138.0944  141.1851  163.0846 C.ar    1  UNL1        0.0034
     24 C         138.7745  141.6114  164.3517 C.ar    1  UNL1        0.0122
     25 N         145.3019  141.3790  162.4566 N.3     1  UNL1       -0.2922
     26 H         145.2253  140.6095  161.7915 H       1  UNL1        0.1236
     27 C         144.9328  142.6300  161.7158 C.3     1  UNL1        0.1353
     28 C         143.5053  142.8782  161.3276 C.ar    1  UNL1        0.1567
     29 N         142.9060  144.2418  161.5051 N.ar    1  UNL1       -0.2245
     30 C         141.4785  144.4900  161.1169 C.ar    1  UNL1        0.1400
     31 C         140.6503  143.3745  160.5513 C.ar    1  UNL1        0.1898
     32 C         141.2496  142.0110  160.3739 C.ar    1  UNL1        0.1715
     33 N         142.6771  141.7628  160.7620 N.ar    1  UNL1       -0.2113
     34 N         140.4214  140.8956  159.8083 N.am    1  UNL1       -0.2638
     35 C         138.9939  141.1437  159.4201 C.2     1  UNL1        0.2718
     36 O         138.1657  140.0283  158.8545 O.2     1  UNL1       -0.2707
     37 C         138.3946  142.5073  159.5975 C.3     1  UNL1        0.2899
     38 O         139.2228  143.6227  160.1631 O.3     1  UNL1       -0.4612
     39 H         140.8147  140.0006  159.6918 H       1  UNL1        0.1565
@<TRIPOS>BOND
     1    12    13    1
     2    13    14   ar
     3    14    15   ar
     4    15    16    2
     5    15    17   ar
     6    17    11    1
     7    11     7    1
     8     7     8    1
     9     7     1    1
    10     1     2    1
    11     2     3    1
    12     3     4    1
    13     4    25    1
    14    25    27    1
    15    27    28    1
    16    28    29   ar
    17    29    30   ar
    18    30    31   ar
    19    31    32   ar
    20    32    33   ar
    21    32    34    1
    22    34    35   am
    23    35    36    2
    24    35    37    1
    25    37    38    1
    26     4     5    1
    27     5     6    1
    28    17    18   ar
    29    18    19   ar
    30    19    20   ar
    31    20    21    1
    32    20    22   ar
    33    22    23   ar
    34    23    24   ar
    35    24    13   ar
    36     6     1    1
    37    24    18   ar
    38    33    28   ar
    39    38    31    1
    40     8     9    1
    41     8    10    1
    42    25    26    1
    43    34    39    1
@<TRIPOS>MOLECULE
*****
 39 43 0 0 0
SMALL
GASTEIGER

@<TRIPOS>ATOM
      1 C         140.7056  139.4057  160.5249 C.3     1  UNL1        0.0162
      2 C         141.1826  138.2237  161.3158 C.3     1  UNL1        0.0028
      3 C         142.5267  138.2592  161.9807 C.3     1  UNL1        0.0158
      4 C         143.3939  139.4767  161.8546 C.3     1  UNL1        0.0543
      5 C         142.9170  140.6586  161.0637 C.3     1  UNL1        0.0158
      6 C         141.5728  140.6231  160.3988 C.3     1  UNL1        0.0028
      7 C         139.3615  139.3703  159.8600 C.3     1  UNL1        0.0737
      8 N         139.2351  138.8745  158.4499 N.3     1  UNL1       -0.3206
      9 H         140.1547  138.6049  158.1006 H       1  UNL1        0.1189
     10 H         138.8518  139.6149  157.8623 H       1  UNL1        0.1189
     11 C         138.1438  139.8305  160.6052 C.3     1  UNL1        0.1244
     12 C         138.6573  143.9449  164.9420 C.3     1  UNL1        0.0312
     13 C         138.5289  142.9163  163.8578 C.ar    1  UNL1       -0.0157
     14 C         138.3642  143.3475  162.4306 C.ar    1  UNL1        0.0565
     15 C         138.2358  142.3189  161.3464 C.ar    1  UNL1        0.2607
     16 O         138.0710  142.7501  159.9192 O.2     1  UNL1       -0.2670
     17 N         138.2722  140.8591  161.6894 N.ar    1  UNL1       -0.2941
     18 C         138.4369  140.4279  163.1166 C.ar    1  UNL1        0.0644
     19 C         138.4733  138.9681  163.4596 C.ar    1  UNL1        0.0469
     20 C         138.6381  138.5369  164.8868 C.ar    1  UNL1        0.1416
     21 F         138.6745  137.0771  165.2298 F       1  UNL1       -0.2041
     22 C         138.7665  139.5655  165.9710 C.ar    1  UNL1        0.0297
     23 C         138.7301  141.0253  165.6280 C.ar    1  UNL1        0.0034
     24 C         138.5653  141.4565  164.2008 C.ar    1  UNL1        0.0122
     25 N         144.7380  139.5122  162.5195 N.3     1  UNL1       -0.2922
     26 H         145.4079  139.8170  161.8133 H       1  UNL1        0.1236
     27 C         144.9558  140.3777  163.7251 C.3     1  UNL1        0.1353
     28 C         144.0495  140.2500  164.9136 C.ar    1  UNL1        0.1567
     29 N         143.8493  138.9131  165.5639 N.ar    1  UNL1       -0.2245
     30 C         142.9430  138.7854  166.7523 C.ar    1  UNL1        0.1400
     31 C         142.2370  139.9946  167.2904 C.ar    1  UNL1        0.1898
     32 C         142.4372  141.3314  166.6402 C.ar    1  UNL1        0.1715
     33 N         143.3435  141.4591  165.4517 N.ar    1  UNL1       -0.2113
     34 N         141.7312  142.5404  167.1783 N.am    1  UNL1       -0.2638
     35 C         140.8250  142.4128  168.3667 C.2     1  UNL1        0.2718
     36 O         140.1189  143.6219  168.9049 O.2     1  UNL1       -0.2707
     37 C         140.6247  141.0760  169.0170 C.3     1  UNL1        0.2899
     38 O         141.3307  139.8669  168.4789 O.3     1  UNL1       -0.4612
     39 H         141.8627  143.4178  166.7515 H       1  UNL1        0.1565
@<TRIPOS>BOND
     1    12    13    1
     2    13    14   ar
     3    14    15   ar
     4    15    16    2
     5    15    17   ar
     6    17    11    1
     7    11     7    1
     8     7     8    1
     9     7     1    1
    10     1     2    1
    11     2     3    1
    12     3     4    1
    13     4    25    1
    14    25    27    1
    15    27    28    1
    16    28    29   ar
    17    29    30   ar
    18    30    31   ar
    19    31    32   ar
    20    32    33   ar
    21    32    34    1
    22    34    35   am
    23    35    36    2
    24    35    37    1
    25    37    38    1
    26     4     5    1
    27     5     6    1
    28    17    18   ar
    29    18    19   ar
    30    19    20   ar
    31    20    21    1
    32    20    22   ar
    33    22    23   ar
    34    23    24   ar
    35    24    13   ar
    36     6     1    1
    37    24    18   ar
    38    33    28   ar
    39    38    31    1
    40     8     9    1
    41     8    10    1
    42    25    26    1
    43    34    39    1
@<TRIPOS>MOLECULE
*****
 39 43 0 0 0
SMALL
GASTEIGER

@<TRIPOS>ATOM
      1 C         139.3025  139.0873  165.5149 C.3     1  UNL1        0.0162
      2 C         140.2503  138.0132  165.0699 C.3     1  UNL1        0.0028
      3 C         140.2376  137.5450  163.6449 C.3     1  UNL1        0.0158
      4 C         139.2772  138.1509  162.6649 C.3     1  UNL1        0.0543
      5 C         138.3294  139.2250  163.1099 C.3     1  UNL1        0.0158
      6 C         138.3421  139.6932  164.5349 C.3     1  UNL1        0.0028
      7 C         139.3151  139.5555  166.9399 C.3     1  UNL1        0.0737
      8 N         138.2629  139.0769  167.8959 N.3     1  UNL1       -0.3206
      9 H         137.6256  138.4448  167.4116 H       1  UNL1        0.1189
     10 H         137.7410  139.8763  168.2552 H       1  UNL1        0.1189
     11 C         140.3799  140.5022  167.4089 C.3     1  UNL1        0.1244
     12 C         144.2598  142.8407  163.4748 C.3     1  UNL1        0.0312
     13 C         143.2898  142.2560  164.4583 C.ar    1  UNL1       -0.0157
     14 C         143.6392  141.0001  165.2002 C.ar    1  UNL1        0.0565
     15 C         142.6692  140.4154  166.1837 C.ar    1  UNL1        0.2607
     16 O         143.0187  139.1594  166.9256 O.2     1  UNL1       -0.2670
     17 N         141.3499  141.0868  166.4254 N.ar    1  UNL1       -0.2941
     18 C         141.0004  142.3429  165.6835 C.ar    1  UNL1        0.0644
     19 C         139.6810  143.0142  165.9252 C.ar    1  UNL1        0.0469
     20 C         139.3316  144.2702  165.1833 C.ar    1  UNL1        0.1416
     21 F         138.0122  144.9416  165.4249 F       1  UNL1       -0.2041
     22 C         140.3016  144.8548  164.1998 C.ar    1  UNL1        0.0297
     23 C         141.6210  144.1834  163.9581 C.ar    1  UNL1        0.0034
     24 C         141.9704  142.9275  164.7000 C.ar    1  UNL1        0.0122
     25 N         139.2646  137.6827  161.2399 N.3     1  UNL1       -0.2922
     26 H         138.5008  137.0118  161.1571 H       1  UNL1        0.1236
     27 C         139.0933  138.6733  160.1265 C.3     1  UNL1        0.1353
     28 C         139.8718  139.9554  160.1370 C.ar    1  UNL1        0.1567
     29 N         141.3548  139.9342  159.9127 N.ar    1  UNL1       -0.2245
     30 C         142.1333  141.2164  159.9232 C.ar    1  UNL1        0.1400
     31 C         141.4287  142.5197  160.1580 C.ar    1  UNL1        0.1898
     32 C         139.9458  142.5408  160.3823 C.ar    1  UNL1        0.1715
     33 N         139.1673  141.2587  160.3718 N.ar    1  UNL1       -0.2113
     34 N         139.2413  143.8441  160.6171 N.am    1  UNL1       -0.2638
     35 C         140.0198  145.1262  160.6276 C.2     1  UNL1        0.2718
     36 O         139.3152  146.4295  160.8624 O.2     1  UNL1       -0.2707
     37 C         141.5027  145.1051  160.4033 C.3     1  UNL1        0.2899
     38 O         142.2072  143.8018  160.1685 O.3     1  UNL1       -0.4612
     39 H         138.2680  143.8580  160.7643 H       1  UNL1        0.1565
@<TRIPOS>BOND
     1    12    13    1
     2    13    14   ar
     3    14    15   ar
     4    15    16    2
     5    15    17   ar
     6    17    11    1
     7    11     7    1
     8     7     8    1
     9     7     1    1
    10     1     2    1
    11     2     3    1
    12     3     4    1
    13     4    25    1
    14    25    27    1
    15    27    28    1
    16    28    29   ar
    17    29    30   ar
    18    30    31   ar
    19    31    32   ar
    20    32    33   ar
    21    32    34    1
    22    34    35   am
    23    35    36    2
    24    35    37    1
    25    37    38    1
    26     4     5    1
    27     5     6    1
    28    17    18   ar
    29    18    19   ar
    30    19    20   ar
    31    20    21    1
    32    20    22   ar
    33    22    23   ar
    34    23    24   ar
    35    24    13   ar
    36     6     1    1
    37    24    18   ar
    38    33    28   ar
    39    38    31    1
    40     8     9    1
    41     8    10    1
    42    25    26    1
    43    34    39    1
@<TRIPOS>MOLECULE
*****
 39 43 0 0 0
SMALL
GASTEIGER

@<TRIPOS>ATOM
      1 C         143.3716  143.2060  161.1784 C.3     1  UNL1        0.0162
      2 C         143.3051  143.8389  162.5368 C.3     1  UNL1        0.0028
      3 C         142.2371  144.8467  162.8431 C.3     1  UNL1        0.0158
      4 C         141.2357  145.2216  161.7911 C.3     1  UNL1        0.0543
      5 C         141.3022  144.5887  160.4328 C.3     1  UNL1        0.0158
      6 C         142.3702  143.5809  160.1265 C.3     1  UNL1        0.0028
      7 C         144.4395  142.1982  160.8720 C.3     1  UNL1        0.0737
      8 N         145.7981  142.6558  160.4305 N.3     1  UNL1       -0.3206
      9 H         145.8183  143.6750  160.3938 H       1  UNL1        0.1189
     10 H         145.9998  142.2782  159.5047 H       1  UNL1        0.1189
     11 C         144.1489  140.7329  161.0072 C.3     1  UNL1        0.1244
     12 C         143.5633  138.2802  166.4516 C.3     1  UNL1        0.0312
     13 C         143.7097  138.8934  165.0905 C.ar    1  UNL1       -0.0157
     14 C         144.8589  139.8131  164.8019 C.ar    1  UNL1        0.0565
     15 C         145.0053  140.4262  163.4408 C.ar    1  UNL1        0.2607
     16 O         146.1547  141.3460  163.1522 O.2     1  UNL1       -0.2670
     17 N         144.0025  140.1197  162.3683 N.ar    1  UNL1       -0.2941
     18 C         142.8531  139.2000  162.6568 C.ar    1  UNL1        0.0644
     19 C         141.8503  138.8935  161.5843 C.ar    1  UNL1        0.0469
     20 C         140.7010  137.9738  161.8729 C.ar    1  UNL1        0.1416
     21 F         139.6981  137.6672  160.8004 F       1  UNL1       -0.2041
     22 C         140.5546  137.3606  163.2340 C.ar    1  UNL1        0.0297
     23 C         141.5575  137.6671  164.3065 C.ar    1  UNL1        0.0034
     24 C         142.7067  138.5868  164.0179 C.ar    1  UNL1        0.0122
     25 N         140.1678  146.2294  162.0975 N.3     1  UNL1       -0.2922
     26 H         139.9404  146.6940  161.2184 H       1  UNL1        0.1236
     27 C         138.8684  145.7853  162.7013 C.3     1  UNL1        0.1353
     28 C         138.6391  144.3340  163.0035 C.ar    1  UNL1        0.1567
     29 N         137.9418  143.4607  162.0029 N.ar    1  UNL1       -0.2245
     30 C         137.7125  142.0094  162.3051 C.ar    1  UNL1        0.1400
     31 C         138.1804  141.4315  163.6078 C.ar    1  UNL1        0.1898
     32 C         138.8777  142.3049  164.6084 C.ar    1  UNL1        0.1715
     33 N         139.1070  143.7561  164.3062 N.ar    1  UNL1       -0.2113
     34 N         139.3456  141.7270  165.9110 N.am    1  UNL1       -0.2638
     35 C         139.1162  140.2758  166.2132 C.2     1  UNL1        0.2718
     36 O         139.5842  139.6979  167.5160 O.2     1  UNL1       -0.2707
     37 C         138.4190  139.4024  165.2127 C.3     1  UNL1        0.2899
     38 O         137.9511  139.9803  163.9100 O.3     1  UNL1       -0.4612
     39 H         139.8032  142.3002  166.5677 H       1  UNL1        0.1565
@<TRIPOS>BOND
     1    12    13    1
     2    13    14   ar
     3    14    15   ar
     4    15    16    2
     5    15    17   ar
     6    17    11    1
     7    11     7    1
     8     7     8    1
     9     7     1    1
    10     1     2    1
    11     2     3    1
    12     3     4    1
    13     4    25    1
    14    25    27    1
    15    27    28    1
    16    28    29   ar
    17    29    30   ar
    18    30    31   ar
    19    31    32   ar
    20    32    33   ar
    21    32    34    1
    22    34    35   am
    23    35    36    2
    24    35    37    1
    25    37    38    1
    26     4     5    1
    27     5     6    1
    28    17    18   ar
    29    18    19   ar
    30    19    20   ar
    31    20    21    1
    32    20    22   ar
    33    22    23   ar
    34    23    24   ar
    35    24    13   ar
    36     6     1    1
    37    24    18   ar
    38    33    28   ar
    39    38    31    1
    40     8     9    1
    41     8    10    1
    42    25    26    1
    43    34    39    1
