@<TRIPOS>MOLECULE
*****
 41 45 0 0 0
SMALL
GASTEIGER

@<TRIPOS>ATOM
      1 C         141.0776  142.3433  159.2992 C.3     1  UNL1        0.0822
      2 C         143.5257  142.2291  160.1618 C.ar    1  UNL1        0.1351
      3 C         144.5266  141.7481  161.1703 C.ar    1  UNL1        0.0366
      4 C         144.0803  140.9003  162.3244 C.ar    1  UNL1        0.0030
      5 C         145.0812  140.4193  163.3328 C.ar    1  UNL1        0.0006
      6 C         144.6349  139.5715  164.4870 C.ar    1  UNL1        0.0067
      7 C         143.1878  139.2047  164.6328 C.ar    1  UNL1        0.0346
      8 BR        142.7415  138.3569  165.7869 Br      1  UNL1       -0.0490
      9 C         142.1868  139.6857  163.6243 C.ar    1  UNL1        0.0067
     10 C         142.6331  140.5335  162.4702 C.ar    1  UNL1        0.0004
     11 C         141.6323  141.0145  161.4618 C.ar    1  UNL1       -0.0009
     12 C         142.0785  141.8623  160.3076 C.ar    1  UNL1        0.0183
     13 C         145.0861  142.6081  158.1194 C.3     1  UNL1        0.2525
     14 O         143.9719  143.0768  159.0077 O.3     1  UNL1       -0.4717
     15 C         140.2413  141.3546  158.5421 C.ar    1  UNL1        0.0246
     16 C         138.7666  141.2655  158.8016 C.ar    1  UNL1        0.0200
     17 C         137.9303  140.2768  158.0445 C.ar    1  UNL1        0.1019
     18 N         138.5687  139.3773  157.0279 N.ar    1  UNL1       -0.2076
     19 C         140.0434  139.4665  156.7685 C.ar    1  UNL1        0.2598
     20 C         140.8797  140.4551  157.5256 C.ar    1  UNL1        0.1879
     21 O         140.6818  138.5670  155.7520 O.3     1  UNL1       -0.4541
     22 C         140.7569  137.0895  155.9998 C.3     1  UNL1        0.2543
     23 O         142.3544  140.5443  157.2662 O.3     1  UNL1       -0.4670
     24 C         143.2671  139.4535  157.7428 C.3     1  UNL1        0.2527
     25 C         140.9130  143.8128  159.0479 C.3     1  UNL1        0.1475
     26 O         141.4963  143.6436  157.6764 O.3     1  UNL1       -0.3789
     27 H         141.9059  144.4764  157.3942 H       1  UNL1        0.2108
     28 C         140.3297  143.9820  160.4194 C.ar    1  UNL1        0.1474
     29 C         141.0281  144.5738  161.6077 C.ar    1  UNL1        0.0384
     30 C         140.0755  144.5466  162.7662 C.ar    1  UNL1        0.0373
     31 C         140.2139  144.9974  164.1901 C.ar    1  UNL1        0.0031
     32 C         139.0651  144.8397  165.1417 C.ar    1  UNL1        0.0002
     33 C         137.7780  144.2312  164.6694 C.ar    1  UNL1        0.0031
     34 C         137.6397  143.7805  163.2454 C.ar    1  UNL1        0.0375
     35 C         138.7884  143.9382  162.2938 C.ar    1  UNL1        0.1449
     36 O         138.9455  143.5892  160.8434 O.2     1  UNL1       -0.4554
     37 C         140.7484  145.2824  158.7966 C.3     1  UNL1        0.0522
     38 C         141.4310  145.9241  157.6251 C.3     1  UNL1        0.0751
     39 N         140.6441  146.2702  156.3958 N.3     1  UNL1       -0.2702
     40 C         141.1608  145.8848  155.0414 C.3     1  UNL1        0.0897
     41 C         139.3405  147.0015  156.5210 C.3     1  UNL1        0.0897
@<TRIPOS>BOND
     1    13    14    1
     2    14     2    1
     3     2     3   ar
     4     3     4   ar
     5     4     5   ar
     6     5     6   ar
     7     6     7   ar
     8     7     8    1
     9     7     9   ar
    10     9    10   ar
    11    10    11   ar
    12    11    12   ar
    13     1    12    1
    14     1    15    1
    15    15    16   ar
    16    16    17   ar
    17    17    18   ar
    18    18    19   ar
    19    19    21    1
    20    21    22    1
    21    19    20   ar
    22    20    23    1
    23    23    24    1
    24     1    25    1
    25    25    26    1
    26    25    37    1
    27    37    38    1
    28    38    39    1
    29    39    40    1
    30    39    41    1
    31    25    28    1
    32    28    29   ar
    33    29    30   ar
    34    30    31   ar
    35    31    32   ar
    36    32    33   ar
    37    33    34   ar
    38    34    35   ar
    39    35    36   ar
    40    12     2   ar
    41    20    15   ar
    42    36    28   ar
    43    10     4   ar
    44    35    30   ar
    45    26    27    1
@<TRIPOS>MOLECULE
*****
 41 45 0 0 0
SMALL
GASTEIGER

@<TRIPOS>ATOM
      1 C         140.4008  141.6489  159.2696 C.3     1  UNL1        0.0822
      2 C         142.2777  140.4371  160.5958 C.ar    1  UNL1        0.1351
      3 C         142.7051  139.5646  161.7387 C.ar    1  UNL1        0.0366
      4 C         141.6828  139.0314  162.6983 C.ar    1  UNL1        0.0030
      5 C         142.1101  138.1589  163.8411 C.ar    1  UNL1        0.0006
      6 C         141.0879  137.6258  164.8007 C.ar    1  UNL1        0.0067
      7 C         139.6383  137.9651  164.6174 C.ar    1  UNL1        0.0346
      8 BR        138.6161  137.4319  165.5770 Br      1  UNL1       -0.0490
      9 C         139.2110  138.8376  163.4745 C.ar    1  UNL1        0.0067
     10 C         140.2332  139.3707  162.5149 C.ar    1  UNL1        0.0004
     11 C         139.8059  140.2432  161.3721 C.ar    1  UNL1       -0.0009
     12 C         140.8282  140.7764  160.4125 C.ar    1  UNL1        0.0183
     13 C         144.2721  142.0214  160.0835 C.3     1  UNL1        0.2525
     14 O         143.2999  140.9702  159.6362 O.3     1  UNL1       -0.4717
     15 C         139.4470  141.1212  158.2391 C.ar    1  UNL1        0.0246
     16 C         138.0296  141.6116  158.2082 C.ar    1  UNL1        0.0200
     17 C         137.0758  141.0840  157.1778 C.ar    1  UNL1        0.1019
     18 N         137.5393  140.0660  156.1782 N.ar    1  UNL1       -0.2076
     19 C         138.9566  139.5757  156.2092 C.ar    1  UNL1        0.2598
     20 C         139.9104  140.1033  157.2397 C.ar    1  UNL1        0.1879
     21 O         139.4200  138.5578  155.2097 O.3     1  UNL1       -0.4541
     22 C         139.0130  137.1217  155.3580 C.3     1  UNL1        0.2543
     23 O         141.3276  139.6130  157.2706 O.3     1  UNL1       -0.4670
     24 C         141.6364  138.2446  157.8018 C.3     1  UNL1        0.2527
     25 C         140.9272  143.0489  159.1572 C.3     1  UNL1        0.1475
     26 O         141.4933  142.7276  157.8058 O.3     1  UNL1       -0.3789
     27 H         142.2525  143.3044  157.6278 H       1  UNL1        0.2108
     28 C         140.3611  143.3703  160.5086 C.ar    1  UNL1        0.1474
     29 C         141.1522  143.6700  161.7473 C.ar    1  UNL1        0.0384
     30 C         140.1845  143.9333  162.8629 C.ar    1  UNL1        0.0373
     31 C         140.3887  144.2801  164.3079 C.ar    1  UNL1        0.0031
     32 C         139.2040  144.4899  165.2035 C.ar    1  UNL1        0.0002
     33 C         137.8149  144.3529  164.6543 C.ar    1  UNL1        0.0031
     34 C         137.6106  144.0061  163.2092 C.ar    1  UNL1        0.0375
     35 C         138.7954  143.7963  162.3135 C.ar    1  UNL1        0.1449
     36 O         138.9046  143.4483  160.8585 O.2     1  UNL1       -0.4554
     37 C         141.4537  144.4490  159.0448 C.3     1  UNL1        0.0522
     38 C         140.5838  145.5345  158.4835 C.3     1  UNL1        0.0751
     39 N         140.7087  145.9249  157.0405 N.3     1  UNL1       -0.2702
     40 C         141.9868  145.6622  156.3005 C.3     1  UNL1        0.0897
     41 C         139.5556  146.5778  156.3377 C.3     1  UNL1        0.0897
@<TRIPOS>BOND
     1    13    14    1
     2    14     2    1
     3     2     3   ar
     4     3     4   ar
     5     4     5   ar
     6     5     6   ar
     7     6     7   ar
     8     7     8    1
     9     7     9   ar
    10     9    10   ar
    11    10    11   ar
    12    11    12   ar
    13     1    12    1
    14     1    15    1
    15    15    16   ar
    16    16    17   ar
    17    17    18   ar
    18    18    19   ar
    19    19    21    1
    20    21    22    1
    21    19    20   ar
    22    20    23    1
    23    23    24    1
    24     1    25    1
    25    25    26    1
    26    25    37    1
    27    37    38    1
    28    38    39    1
    29    39    40    1
    30    39    41    1
    31    25    28    1
    32    28    29   ar
    33    29    30   ar
    34    30    31   ar
    35    31    32   ar
    36    32    33   ar
    37    33    34   ar
    38    34    35   ar
    39    35    36   ar
    40    12     2   ar
    41    20    15   ar
    42    36    28   ar
    43    10     4   ar
    44    35    30   ar
    45    26    27    1
@<TRIPOS>MOLECULE
*****
 41 45 0 0 0
SMALL
GASTEIGER

@<TRIPOS>ATOM
      1 C         140.0718  140.5248  159.8263 C.3     1  UNL1        0.0822
      2 C         139.1345  139.8308  157.5047 C.ar    1  UNL1        0.1351
      3 C         139.2081  138.9696  156.2786 C.ar    1  UNL1        0.0366
      4 C         140.2924  137.9415  156.1482 C.ar    1  UNL1        0.0030
      5 C         140.3660  137.0804  154.9222 C.ar    1  UNL1        0.0006
      6 C         141.4504  136.0522  154.7918 C.ar    1  UNL1        0.0067
      7 C         142.4611  135.8851  155.8874 C.ar    1  UNL1        0.0346
      8 BR        143.5455  134.8569  155.7570 Br      1  UNL1       -0.0490
      9 C         142.3876  136.7462  157.1134 C.ar    1  UNL1        0.0067
     10 C         141.3033  137.7744  157.2439 C.ar    1  UNL1        0.0004
     11 C         141.2297  138.6355  158.4698 C.ar    1  UNL1       -0.0009
     12 C         140.1453  139.6637  158.6002 C.ar    1  UNL1        0.0183
     13 C         138.1683  142.1692  156.9144 C.3     1  UNL1        0.2525
     14 O         138.0502  140.8589  157.6351 O.3     1  UNL1       -0.4717
     15 C         140.6582  141.9053  159.8095 C.ar    1  UNL1        0.0246
     16 C         142.1028  142.1022  159.4566 C.ar    1  UNL1        0.0200
     17 C         142.6893  143.4827  159.4398 C.ar    1  UNL1        0.1019
     18 N         141.8311  144.6663  159.7758 N.ar    1  UNL1       -0.2076
     19 C         140.3866  144.4693  160.1286 C.ar    1  UNL1        0.2598
     20 C         139.8002  143.0888  160.1455 C.ar    1  UNL1        0.1879
     21 O         139.5285  145.6528  160.4646 O.3     1  UNL1       -0.4541
     22 C         139.6797  146.3364  161.7912 C.3     1  UNL1        0.2543
     23 O         138.3556  142.8918  160.4983 O.3     1  UNL1       -0.4670
     24 C         137.9047  143.0368  161.9216 C.3     1  UNL1        0.2527
     25 C         139.4118  140.0054  161.0691 C.3     1  UNL1        0.1475
     26 O         138.1324  139.8143  160.3099 O.3     1  UNL1       -0.3789
     27 H         137.3819  139.8694  160.9219 H       1  UNL1        0.2108
     28 C         140.6913  140.1965  161.8284 C.ar    1  UNL1        0.1474
     29 C         140.9189  141.1779  162.9397 C.ar    1  UNL1        0.0384
     30 C         142.3361  141.0277  163.4078 C.ar    1  UNL1        0.0373
     31 C         143.1200  141.7303  164.4763 C.ar    1  UNL1        0.0031
     32 C         144.5522  141.3586  164.7229 C.ar    1  UNL1        0.0002
     33 C         145.2004  140.2844  163.9009 C.ar    1  UNL1        0.0031
     34 C         144.4165  139.5817  162.8323 C.ar    1  UNL1        0.0375
     35 C         142.9843  139.9534  162.5858 C.ar    1  UNL1        0.1449
     36 O         141.9678  139.4397  161.6096 O.2     1  UNL1       -0.4554
     37 C         138.7519  139.4860  162.3119 C.3     1  UNL1        0.0522
     38 C         138.9175  138.0476  162.7039 C.3     1  UNL1        0.0751
     39 N         139.5457  137.6965  164.0201 N.3     1  UNL1       -0.2702
     40 C         140.9386  137.1415  164.0619 C.3     1  UNL1        0.0897
     41 C         138.7810  137.9004  165.2943 C.3     1  UNL1        0.0897
@<TRIPOS>BOND
     1    13    14    1
     2    14     2    1
     3     2     3   ar
     4     3     4   ar
     5     4     5   ar
     6     5     6   ar
     7     6     7   ar
     8     7     8    1
     9     7     9   ar
    10     9    10   ar
    11    10    11   ar
    12    11    12   ar
    13     1    12    1
    14     1    15    1
    15    15    16   ar
    16    16    17   ar
    17    17    18   ar
    18    18    19   ar
    19    19    21    1
    20    21    22    1
    21    19    20   ar
    22    20    23    1
    23    23    24    1
    24     1    25    1
    25    25    26    1
    26    25    37    1
    27    37    38    1
    28    38    39    1
    29    39    40    1
    30    39    41    1
    31    25    28    1
    32    28    29   ar
    33    29    30   ar
    34    30    31   ar
    35    31    32   ar
    36    32    33   ar
    37    33    34   ar
    38    34    35   ar
    39    35    36   ar
    40    12     2   ar
    41    20    15   ar
    42    36    28   ar
    43    10     4   ar
    44    35    30   ar
    45    26    27    1
@<TRIPOS>MOLECULE
*****
 41 45 0 0 0
SMALL
GASTEIGER

@<TRIPOS>ATOM
      1 C         141.5803  140.9265  158.7675 C.3     1  UNL1        0.0822
      2 C         139.7335  142.5086  159.6820 C.ar    1  UNL1        0.1351
      3 C         138.7568  142.8797  160.7584 C.ar    1  UNL1        0.0366
      4 C         138.6503  142.0396  161.9965 C.ar    1  UNL1        0.0030
      5 C         137.6736  142.4106  163.0728 C.ar    1  UNL1        0.0006
      6 C         137.5671  141.5705  164.3109 C.ar    1  UNL1        0.0067
      7 C         138.4372  140.3595  164.4727 C.ar    1  UNL1        0.0346
      8 BR        138.3306  139.5194  165.7108 Br      1  UNL1       -0.0490
      9 C         139.4139  139.9884  163.3964 C.ar    1  UNL1        0.0067
     10 C         139.5204  140.8285  162.1582 C.ar    1  UNL1        0.0004
     11 C         140.4970  140.4575  161.0819 C.ar    1  UNL1       -0.0009
     12 C         140.6036  141.2975  159.8438 C.ar    1  UNL1        0.0183
     13 C         140.2546  144.7866  158.5466 C.3     1  UNL1        0.2525
     14 O         139.8401  143.3487  158.4439 O.3     1  UNL1       -0.4717
     15 C         141.5127  139.5712  158.1281 C.ar    1  UNL1        0.0246
     16 C         142.7243  138.6870  158.1149 C.ar    1  UNL1        0.0200
     17 C         142.6568  137.3317  157.4755 C.ar    1  UNL1        0.1019
     18 N         141.3775  136.8607  156.8495 N.ar    1  UNL1       -0.2076
     19 C         140.1660  137.7450  156.8628 C.ar    1  UNL1        0.2598
     20 C         140.2336  139.1002  157.5021 C.ar    1  UNL1        0.1879
     21 O         138.8869  137.2740  156.2368 O.3     1  UNL1       -0.4541
     22 C         138.7276  137.3002  154.7455 C.3     1  UNL1        0.2543
     23 O         139.0220  139.9845  157.5154 O.3     1  UNL1       -0.4670
     24 C         138.6748  140.7992  156.3047 C.3     1  UNL1        0.2527
     25 C         142.6245  141.9106  158.3305 C.3     1  UNL1        0.1475
     26 O         142.0487  141.9066  156.9454 O.3     1  UNL1       -0.3789
     27 H         142.7420  142.1343  156.3064 H       1  UNL1        0.2108
     28 C         143.2003  141.9147  159.7155 C.ar    1  UNL1        0.1474
     29 C         143.2535  143.0910  160.6448 C.ar    1  UNL1        0.0384
     30 C         143.9101  142.6465  161.9182 C.ar    1  UNL1        0.0373
     31 C         144.2325  143.3755  163.1888 C.ar    1  UNL1        0.0031
     32 C         144.9074  142.6535  164.3172 C.ar    1  UNL1        0.0002
     33 C         145.2599  141.2025  164.1749 C.ar    1  UNL1        0.0031
     34 C         144.9375  140.4734  162.9042 C.ar    1  UNL1        0.0375
     35 C         144.2626  141.1954  161.7759 C.ar    1  UNL1        0.1449
     36 O         143.8239  140.7431  160.4146 O.2     1  UNL1       -0.4554
     37 C         143.6687  142.8948  157.8935 C.3     1  UNL1        0.0522
     38 C         144.9849  142.4067  157.3650 C.3     1  UNL1        0.0751
     39 N         145.0577  141.7629  156.0121 N.3     1  UNL1       -0.2702
     40 C         145.3037  140.2878  155.8958 C.3     1  UNL1        0.0897
     41 C         144.8844  142.5942  154.7756 C.3     1  UNL1        0.0897
@<TRIPOS>BOND
     1    13    14    1
     2    14     2    1
     3     2     3   ar
     4     3     4   ar
     5     4     5   ar
     6     5     6   ar
     7     6     7   ar
     8     7     8    1
     9     7     9   ar
    10     9    10   ar
    11    10    11   ar
    12    11    12   ar
    13     1    12    1
    14     1    15    1
    15    15    16   ar
    16    16    17   ar
    17    17    18   ar
    18    18    19   ar
    19    19    21    1
    20    21    22    1
    21    19    20   ar
    22    20    23    1
    23    23    24    1
    24     1    25    1
    25    25    26    1
    26    25    37    1
    27    37    38    1
    28    38    39    1
    29    39    40    1
    30    39    41    1
    31    25    28    1
    32    28    29   ar
    33    29    30   ar
    34    30    31   ar
    35    31    32   ar
    36    32    33   ar
    37    33    34   ar
    38    34    35   ar
    39    35    36   ar
    40    12     2   ar
    41    20    15   ar
    42    36    28   ar
    43    10     4   ar
    44    35    30   ar
    45    26    27    1
@<TRIPOS>MOLECULE
*****
 41 45 0 0 0
SMALL
GASTEIGER

@<TRIPOS>ATOM
      1 C         142.0996  141.2800  159.3047 C.3     1  UNL1        0.0822
      2 C         142.3627  138.8826  160.2707 C.ar    1  UNL1        0.1351
      3 C         142.0466  137.8658  161.3273 C.ar    1  UNL1        0.0366
      4 C         141.1514  138.2298  162.4745 C.ar    1  UNL1        0.0030
      5 C         140.8353  137.2131  163.5311 C.ar    1  UNL1        0.0006
      6 C         139.9400  137.5771  164.6783 C.ar    1  UNL1        0.0067
      7 C         139.3608  138.9577  164.7689 C.ar    1  UNL1        0.0346
      8 BR        138.4656  139.3217  165.9161 Br      1  UNL1       -0.0490
      9 C         139.6769  139.9745  163.7123 C.ar    1  UNL1        0.0067
     10 C         140.5722  139.6105  162.5651 C.ar    1  UNL1        0.0004
     11 C         140.8883  140.6272  161.5085 C.ar    1  UNL1       -0.0009
     12 C         141.7835  140.2632  160.3613 C.ar    1  UNL1        0.0183
     13 C         142.8345  137.4606  158.1481 C.3     1  UNL1        0.2525
     14 O         143.2580  138.5186  159.1235 O.3     1  UNL1       -0.4717
     15 C         140.9878  141.9847  158.5855 C.ar    1  UNL1        0.0246
     16 C         140.7214  143.4360  158.8550 C.ar    1  UNL1        0.0200
     17 C         139.6096  144.1407  158.1358 C.ar    1  UNL1        0.1019
     18 N         138.7641  143.3939  157.1470 N.ar    1  UNL1       -0.2076
     19 C         139.0306  141.9426  156.8775 C.ar    1  UNL1        0.2598
     20 C         140.1424  141.2380  157.5967 C.ar    1  UNL1        0.1879
     21 O         138.1851  141.1959  155.8887 O.3     1  UNL1       -0.4541
     22 C         136.6970  141.1375  156.0674 C.3     1  UNL1        0.2543
     23 O         140.4088  139.7867  157.3272 O.3     1  UNL1       -0.4670
     24 C         139.5054  138.7382  157.9058 C.3     1  UNL1        0.2527
     25 C         143.5275  141.5921  158.9675 C.3     1  UNL1        0.1475
     26 O         143.3341  141.0013  157.6024 O.3     1  UNL1       -0.3789
     27 H         144.1849  140.6785  157.2663 H       1  UNL1        0.2108
     28 C         143.7208  142.1829  160.3325 C.ar    1  UNL1        0.1474
     29 C         144.4274  141.5305  161.4837 C.ar    1  UNL1        0.0384
     30 C         144.3848  142.4743  162.6488 C.ar    1  UNL1        0.0373
     31 C         144.9186  142.3682  164.0466 C.ar    1  UNL1        0.0031
     32 C         144.7196  143.4977  165.0133 C.ar    1  UNL1        0.0002
     33 C         143.9866  144.7334  164.5822 C.ar    1  UNL1        0.0031
     34 C         143.4527  144.8396  163.1845 C.ar    1  UNL1        0.0375
     35 C         143.6518  143.7101  162.2178 C.ar    1  UNL1        0.1449
     36 O         143.2414  143.5300  160.7863 O.2     1  UNL1       -0.4554
     37 C         144.9553  141.9042  158.6302 C.3     1  UNL1        0.0522
     38 C         145.2982  142.4988  157.2964 C.3     1  UNL1        0.0751
     39 N         146.3221  141.8382  156.4216 N.3     1  UNL1       -0.2702
     40 C         145.9520  140.6278  155.6166 C.3     1  UNL1        0.0897
     41 C         147.7159  142.3879  156.3518 C.3     1  UNL1        0.0897
@<TRIPOS>BOND
     1    13    14    1
     2    14     2    1
     3     2     3   ar
     4     3     4   ar
     5     4     5   ar
     6     5     6   ar
     7     6     7   ar
     8     7     8    1
     9     7     9   ar
    10     9    10   ar
    11    10    11   ar
    12    11    12   ar
    13     1    12    1
    14     1    15    1
    15    15    16   ar
    16    16    17   ar
    17    17    18   ar
    18    18    19   ar
    19    19    21    1
    20    21    22    1
    21    19    20   ar
    22    20    23    1
    23    23    24    1
    24     1    25    1
    25    25    26    1
    26    25    37    1
    27    37    38    1
    28    38    39    1
    29    39    40    1
    30    39    41    1
    31    25    28    1
    32    28    29   ar
    33    29    30   ar
    34    30    31   ar
    35    31    32   ar
    36    32    33   ar
    37    33    34   ar
    38    34    35   ar
    39    35    36   ar
    40    12     2   ar
    41    20    15   ar
    42    36    28   ar
    43    10     4   ar
    44    35    30   ar
    45    26    27    1
@<TRIPOS>MOLECULE
*****
 41 45 0 0 0
SMALL
GASTEIGER

@<TRIPOS>ATOM
      1 C         142.1766  140.9551  159.6566 C.3     1  UNL1        0.0822
      2 C         143.5576  140.6807  157.4732 C.ar    1  UNL1        0.1351
      3 C         144.0705  139.8150  156.3606 C.ar    1  UNL1        0.0366
      4 C         143.7153  138.3583  156.3191 C.ar    1  UNL1        0.0030
      5 C         144.2282  137.4927  155.2066 C.ar    1  UNL1        0.0006
      6 C         143.8730  136.0359  155.1651 C.ar    1  UNL1        0.0067
      7 C         143.0049  135.4448  156.2360 C.ar    1  UNL1        0.0346
      8 BR        142.6497  133.9881  156.1945 Br      1  UNL1       -0.0490
      9 C         142.4919  136.3104  157.3486 C.ar    1  UNL1        0.0067
     10 C         142.8472  137.7672  157.3901 C.ar    1  UNL1        0.0004
     11 C         142.3343  138.6328  158.5026 C.ar    1  UNL1       -0.0009
     12 C         142.6895  140.0895  158.5441 C.ar    1  UNL1        0.0183
     13 C         145.2886  142.5622  157.9352 C.3     1  UNL1        0.2525
     14 O         143.9128  142.1374  157.5147 O.3     1  UNL1       -0.4717
     15 C         143.0988  141.3845  160.7589 C.ar    1  UNL1        0.0246
     16 C         143.8441  140.3558  161.5567 C.ar    1  UNL1        0.0200
     17 C         144.7663  140.7852  162.6590 C.ar    1  UNL1        0.1019
     18 N         144.9433  142.2433  162.9636 N.ar    1  UNL1       -0.2076
     19 C         144.1980  143.2719  162.1658 C.ar    1  UNL1        0.2598
     20 C         143.2758  142.8425  161.0635 C.ar    1  UNL1        0.1879
     21 O         144.3750  144.7299  162.4704 O.3     1  UNL1       -0.4541
     22 C         143.7838  145.3123  163.7199 C.3     1  UNL1        0.2543
     23 O         142.5305  143.8712  160.2658 O.3     1  UNL1       -0.4670
     24 C         141.4264  144.6604  160.9046 C.3     1  UNL1        0.2527
     25 C         140.7414  141.3913  159.6668 C.3     1  UNL1        0.1475
     26 O         140.9640  142.1532  158.3940 O.3     1  UNL1       -0.3789
     27 H         140.3313  142.8866  158.3414 H       1  UNL1        0.2108
     28 C         140.5189  140.6295  160.9396 C.ar    1  UNL1        0.1474
     29 C         140.2120  141.2252  162.2816 C.ar    1  UNL1        0.0384
     30 C         140.0676  140.1020  163.2653 C.ar    1  UNL1        0.0373
     31 C         139.7660  140.0871  164.7346 C.ar    1  UNL1        0.0031
     32 C         139.6822  138.7823  165.4699 C.ar    1  UNL1        0.0002
     33 C         139.8999  137.4925  164.7359 C.ar    1  UNL1        0.0031
     34 C         140.2015  137.5073  163.2665 C.ar    1  UNL1        0.0375
     35 C         140.2854  138.8121  162.5312 C.ar    1  UNL1        0.1449
     36 O         140.5643  139.1381  161.0939 O.2     1  UNL1       -0.4554
     37 C         139.3063  141.8275  159.6770 C.3     1  UNL1        0.0522
     38 C         138.2750  141.0309  158.9341 C.3     1  UNL1        0.0751
     39 N         138.0981  141.2250  157.4573 N.3     1  UNL1       -0.2702
     40 C         137.4419  142.4698  156.9377 C.3     1  UNL1        0.0897
     41 C         138.5774  140.1744  156.5000 C.3     1  UNL1        0.0897
@<TRIPOS>BOND
     1    13    14    1
     2    14     2    1
     3     2     3   ar
     4     3     4   ar
     5     4     5   ar
     6     5     6   ar
     7     6     7   ar
     8     7     8    1
     9     7     9   ar
    10     9    10   ar
    11    10    11   ar
    12    11    12   ar
    13     1    12    1
    14     1    15    1
    15    15    16   ar
    16    16    17   ar
    17    17    18   ar
    18    18    19   ar
    19    19    21    1
    20    21    22    1
    21    19    20   ar
    22    20    23    1
    23    23    24    1
    24     1    25    1
    25    25    26    1
    26    25    37    1
    27    37    38    1
    28    38    39    1
    29    39    40    1
    30    39    41    1
    31    25    28    1
    32    28    29   ar
    33    29    30   ar
    34    30    31   ar
    35    31    32   ar
    36    32    33   ar
    37    33    34   ar
    38    34    35   ar
    39    35    36   ar
    40    12     2   ar
    41    20    15   ar
    42    36    28   ar
    43    10     4   ar
    44    35    30   ar
    45    26    27    1
@<TRIPOS>MOLECULE
*****
 41 45 0 0 0
SMALL
GASTEIGER

@<TRIPOS>ATOM
      1 C         141.8320  141.9769  160.1770 C.3     1  UNL1        0.0822
      2 C         142.9441  142.3865  157.8650 C.ar    1  UNL1        0.1351
      3 C         143.0084  143.1402  156.5696 C.ar    1  UNL1        0.0366
      4 C         142.0249  144.2379  156.2910 C.ar    1  UNL1        0.0030
      5 C         142.0892  144.9916  154.9958 C.ar    1  UNL1        0.0006
      6 C         141.1056  146.0893  154.7171 C.ar    1  UNL1        0.0067
      7 C         140.0578  146.4334  155.7338 C.ar    1  UNL1        0.0346
      8 BR        139.0743  147.5311  155.4552 Br      1  UNL1       -0.0490
      9 C         139.9935  145.6797  157.0292 C.ar    1  UNL1        0.0067
     10 C         140.9770  144.5820  157.3078 C.ar    1  UNL1        0.0004
     11 C         140.9128  143.8283  158.6031 C.ar    1  UNL1       -0.0009
     12 C         141.8963  142.7305  158.8817 C.ar    1  UNL1        0.0183
     13 C         144.5324  140.5176  157.0080 C.3     1  UNL1        0.2525
     14 O         143.9276  141.2887  158.1436 O.3     1  UNL1       -0.4717
     15 C         142.8851  142.1924  161.2232 C.ar    1  UNL1        0.0246
     16 C         143.2720  143.5857  161.6221 C.ar    1  UNL1        0.0200
     17 C         144.3251  143.8012  162.6682 C.ar    1  UNL1        0.1019
     18 N         144.9914  142.6234  163.3155 N.ar    1  UNL1       -0.2076
     19 C         144.6045  141.2301  162.9167 C.ar    1  UNL1        0.2598
     20 C         143.5513  141.0146  161.8705 C.ar    1  UNL1        0.1879
     21 O         145.2707  140.0524  163.5640 O.3     1  UNL1       -0.4541
     22 C         144.5887  139.3285  164.6868 C.3     1  UNL1        0.2543
     23 O         143.1644  139.6214  161.4716 O.3     1  UNL1       -0.4670
     24 C         144.0797  138.8078  160.6053 C.3     1  UNL1        0.2527
     25 C         140.7145  141.0077  160.4262 C.3     1  UNL1        0.1475
     26 O         141.1217  140.2262  159.2123 O.3     1  UNL1       -0.3789
     27 H         140.3510  139.7569  158.8564 H       1  UNL1        0.2108
     28 C         140.3074  141.7892  161.6400 C.ar    1  UNL1        0.1474
     29 C         139.5223  143.0674  161.6433 C.ar    1  UNL1        0.0384
     30 C         139.3435  143.4979  163.0691 C.ar    1  UNL1        0.0373
     31 C         138.6536  144.6807  163.6814 C.ar    1  UNL1        0.0031
     32 C         138.6383  144.8515  165.1716 C.ar    1  UNL1        0.0002
     33 C         139.3128  143.8395  166.0494 C.ar    1  UNL1        0.0031
     34 C         140.0028  142.6566  165.4371 C.ar    1  UNL1        0.0375
     35 C         140.0181  142.4858  163.9470 C.ar    1  UNL1        0.1449
     36 O         140.6138  141.4298  163.0638 O.2     1  UNL1       -0.4554
     37 C         139.5971  140.0386  160.6753 C.3     1  UNL1        0.0522
     38 C         139.9044  138.6055  160.9945 C.3     1  UNL1        0.0751
     39 N         139.8605  138.1277  162.4158 N.3     1  UNL1       -0.2702
     40 C         141.0150  137.3566  162.9838 C.3     1  UNL1        0.0897
     41 C         138.6621  138.4208  163.2689 C.3     1  UNL1        0.0897
@<TRIPOS>BOND
     1    13    14    1
     2    14     2    1
     3     2     3   ar
     4     3     4   ar
     5     4     5   ar
     6     5     6   ar
     7     6     7   ar
     8     7     8    1
     9     7     9   ar
    10     9    10   ar
    11    10    11   ar
    12    11    12   ar
    13     1    12    1
    14     1    15    1
    15    15    16   ar
    16    16    17   ar
    17    17    18   ar
    18    18    19   ar
    19    19    21    1
    20    21    22    1
    21    19    20   ar
    22    20    23    1
    23    23    24    1
    24     1    25    1
    25    25    26    1
    26    25    37    1
    27    37    38    1
    28    38    39    1
    29    39    40    1
    30    39    41    1
    31    25    28    1
    32    28    29   ar
    33    29    30   ar
    34    30    31   ar
    35    31    32   ar
    36    32    33   ar
    37    33    34   ar
    38    34    35   ar
    39    35    36   ar
    40    12     2   ar
    41    20    15   ar
    42    36    28   ar
    43    10     4   ar
    44    35    30   ar
    45    26    27    1
@<TRIPOS>MOLECULE
*****
 41 45 0 0 0
SMALL
GASTEIGER

@<TRIPOS>ATOM
      1 C         140.8728  141.4434  161.5966 C.3     1  UNL1        0.0822
      2 C         139.6848  139.5469  160.2768 C.ar    1  UNL1        0.1351
      3 C         139.6585  138.5838  159.1270 C.ar    1  UNL1        0.0366
      4 C         140.7941  138.5542  158.1475 C.ar    1  UNL1        0.0030
      5 C         140.7679  137.5912  156.9978 C.ar    1  UNL1        0.0006
      6 C         141.9035  137.5615  156.0182 C.ar    1  UNL1        0.0067
      7 C         143.0653  138.4949  156.1883 C.ar    1  UNL1        0.0346
      8 BR        144.2008  138.4653  155.2087 Br      1  UNL1       -0.0490
      9 C         143.0915  139.4580  157.3380 C.ar    1  UNL1        0.0067
     10 C         141.9559  139.4877  158.3176 C.ar    1  UNL1        0.0004
     11 C         141.9821  140.4507  159.4673 C.ar    1  UNL1       -0.0009
     12 C         140.8465  140.4803  160.4469 C.ar    1  UNL1        0.0183
     13 C         137.9758  138.2927  161.7790 C.3     1  UNL1        0.2525
     14 O         138.5492  139.5766  161.2564 O.3     1  UNL1       -0.4717
     15 C         142.0387  141.4532  162.5403 C.ar    1  UNL1        0.0246
     16 C         143.0653  142.5435  162.4527 C.ar    1  UNL1        0.0200
     17 C         144.2312  142.5533  163.3964 C.ar    1  UNL1        0.1019
     18 N         144.3706  141.4729  164.4276 N.ar    1  UNL1       -0.2076
     19 C         143.3441  140.3827  164.5151 C.ar    1  UNL1        0.2598
     20 C         142.1782  140.3729  163.5714 C.ar    1  UNL1        0.1879
     21 O         143.4835  139.3024  165.5462 O.3     1  UNL1       -0.4541
     22 C         142.7677  139.4216  166.8590 C.3     1  UNL1        0.2543
     23 O         141.1516  139.2827  163.6590 O.3     1  UNL1       -0.4670
     24 C         141.4591  137.9178  163.1180 C.3     1  UNL1        0.2527
     25 C         139.7331  142.3966  161.8027 C.3     1  UNL1        0.1475
     26 O         139.4058  141.7243  163.1029 O.3     1  UNL1       -0.3789
     27 H         138.4634  141.8425  163.2999 H       1  UNL1        0.2108
     28 C         140.0604  143.0690  160.5024 C.ar    1  UNL1        0.1474
     29 C         139.2216  143.0401  159.2592 C.ar    1  UNL1        0.0384
     30 C         139.9268  143.8416  158.2054 C.ar    1  UNL1        0.0373
     31 C         139.5730  144.1618  156.7834 C.ar    1  UNL1        0.0031
     32 C         140.4938  145.0063  155.9533 C.ar    1  UNL1        0.0002
     33 C         141.7684  145.5306  156.5453 C.ar    1  UNL1        0.0031
     34 C         142.1222  145.2105  157.9674 C.ar    1  UNL1        0.0375
     35 C         141.2015  144.3660  158.7975 C.ar    1  UNL1        0.1449
     36 O         141.2840  143.8885  160.2170 O.2     1  UNL1       -0.4554
     37 C         138.5935  143.3499  162.0087 C.3     1  UNL1        0.0522
     38 C         138.8418  144.6929  162.6288 C.3     1  UNL1        0.0751
     39 N         139.5349  144.7899  163.9555 N.3     1  UNL1       -0.2702
     40 C         138.7371  144.7326  165.2245 C.3     1  UNL1        0.0897
     41 C         141.0258  144.9441  164.0133 C.3     1  UNL1        0.0897
@<TRIPOS>BOND
     1    13    14    1
     2    14     2    1
     3     2     3   ar
     4     3     4   ar
     5     4     5   ar
     6     5     6   ar
     7     6     7   ar
     8     7     8    1
     9     7     9   ar
    10     9    10   ar
    11    10    11   ar
    12    11    12   ar
    13     1    12    1
    14     1    15    1
    15    15    16   ar
    16    16    17   ar
    17    17    18   ar
    18    18    19   ar
    19    19    21    1
    20    21    22    1
    21    19    20   ar
    22    20    23    1
    23    23    24    1
    24     1    25    1
    25    25    26    1
    26    25    37    1
    27    37    38    1
    28    38    39    1
    29    39    40    1
    30    39    41    1
    31    25    28    1
    32    28    29   ar
    33    29    30   ar
    34    30    31   ar
    35    31    32   ar
    36    32    33   ar
    37    33    34   ar
    38    34    35   ar
    39    35    36   ar
    40    12     2   ar
    41    20    15   ar
    42    36    28   ar
    43    10     4   ar
    44    35    30   ar
    45    26    27    1
@<TRIPOS>MOLECULE
*****
 41 45 0 0 0
SMALL
GASTEIGER

@<TRIPOS>ATOM
      1 C         141.2552  141.9979  160.3344 C.3     1  UNL1        0.0822
      2 C         143.7033  142.7350  159.8725 C.ar    1  UNL1        0.1351
      3 C         144.9156  142.7341  158.9890 C.ar    1  UNL1        0.0366
      4 C         144.8919  141.9949  157.6840 C.ar    1  UNL1        0.0030
      5 C         146.1041  141.9939  156.8006 C.ar    1  UNL1        0.0006
      6 C         146.0805  141.2547  155.4956 C.ar    1  UNL1        0.0067
      7 C         144.8447  140.5165  155.0740 C.ar    1  UNL1        0.0346
      8 BR        144.8210  139.7773  153.7690 Br      1  UNL1       -0.0490
      9 C         143.6324  140.5175  155.9575 C.ar    1  UNL1        0.0067
     10 C         143.6560  141.2567  157.2625 C.ar    1  UNL1        0.0004
     11 C         142.4438  141.2577  158.1459 C.ar    1  UNL1       -0.0009
     12 C         142.4675  141.9969  159.4509 C.ar    1  UNL1        0.0183
     13 C         144.5752  142.9725  162.3084 C.3     1  UNL1        0.2525
     14 O         143.7269  143.4742  161.1775 O.3     1  UNL1       -0.4717
     15 C         140.5282  140.7154  160.6117 C.ar    1  UNL1        0.0246
     16 C         139.1291  140.5220  160.1065 C.ar    1  UNL1        0.0200
     17 C         138.4022  139.2396  160.3838 C.ar    1  UNL1        0.1019
     18 N         139.0743  138.1506  161.1664 N.ar    1  UNL1       -0.2076
     19 C         140.4734  138.3440  161.6716 C.ar    1  UNL1        0.2598
     20 C         141.2003  139.6264  161.3942 C.ar    1  UNL1        0.1879
     21 O         141.1454  137.2550  162.4541 O.3     1  UNL1       -0.4541
     22 C         141.1591  137.3075  163.9531 C.3     1  UNL1        0.2543
     23 O         142.5993  139.8199  161.8994 O.3     1  UNL1       -0.4670
     24 C         143.7481  139.1565  161.1991 C.3     1  UNL1        0.2527
     25 C         140.7699  143.2813  160.9405 C.3     1  UNL1        0.1475
     26 O         141.0420  142.7367  162.3114 O.3     1  UNL1       -0.3789
     27 H         140.4566  143.1687  162.9529 H       1  UNL1        0.2108
     28 C         140.4977  143.8258  159.5696 C.ar    1  UNL1        0.1474
     29 C         141.1313  145.0423  158.9623 C.ar    1  UNL1        0.0384
     30 C         140.5693  145.2177  157.5825 C.ar    1  UNL1        0.0373
     31 C         140.8240  146.2433  156.5180 C.ar    1  UNL1        0.0031
     32 C         140.0979  146.1608  155.2080 C.ar    1  UNL1        0.0002
     33 C         139.1171  145.0528  154.9626 C.ar    1  UNL1        0.0031
     34 C         138.8624  144.0272  156.0272 C.ar    1  UNL1        0.0375
     35 C         139.5885  144.1096  157.3372 C.ar    1  UNL1        0.1449
     36 O         139.5442  143.2494  158.5652 O.2     1  UNL1       -0.4554
     37 C         140.2846  144.5646  161.5466 C.3     1  UNL1        0.0522
     38 C         140.2329  144.7174  163.0379 C.3     1  UNL1        0.0751
     39 N         138.9356  144.5274  163.7667 N.3     1  UNL1       -0.2702
     40 C         138.8465  144.8356  165.2320 C.3     1  UNL1        0.0897
     41 C         137.7276  144.0291  163.0303 C.3     1  UNL1        0.0897
@<TRIPOS>BOND
     1    13    14    1
     2    14     2    1
     3     2     3   ar
     4     3     4   ar
     5     4     5   ar
     6     5     6   ar
     7     6     7   ar
     8     7     8    1
     9     7     9   ar
    10     9    10   ar
    11    10    11   ar
    12    11    12   ar
    13     1    12    1
    14     1    15    1
    15    15    16   ar
    16    16    17   ar
    17    17    18   ar
    18    18    19   ar
    19    19    21    1
    20    21    22    1
    21    19    20   ar
    22    20    23    1
    23    23    24    1
    24     1    25    1
    25    25    26    1
    26    25    37    1
    27    37    38    1
    28    38    39    1
    29    39    40    1
    30    39    41    1
    31    25    28    1
    32    28    29   ar
    33    29    30   ar
    34    30    31   ar
    35    31    32   ar
    36    32    33   ar
    37    33    34   ar
    38    34    35   ar
    39    35    36   ar
    40    12     2   ar
    41    20    15   ar
    42    36    28   ar
    43    10     4   ar
    44    35    30   ar
    45    26    27    1
