@<TRIPOS>MOLECULE
*****
 37 41 0 0 0
SMALL
GASTEIGER

@<TRIPOS>ATOM
      1 C         140.4923  137.8281  163.6678 C.2     1  UNL1        0.2320
      2 O         141.0646  136.8885  164.6874 O.2     1  UNL1       -0.2744
      3 N         139.6212  138.9685  164.1043 N.am    1  UNL1       -0.2639
      4 H         139.2456  139.5852  163.4351 H       1  UNL1        0.1567
      5 C         139.3223  139.1693  165.5604 C.ar    1  UNL1        0.1655
      6 N         140.2181  139.8384  166.5603 N.ar    1  UNL1       -0.2239
      7 C         139.5246  139.8189  167.8901 C.ar    1  UNL1        0.0913
      8 C         138.2000  139.1378  167.7122 C.ar    1  UNL1        0.0573
      9 S         138.0750  138.7363  166.2723 S.2     1  UNL1       -0.0508
     10 C         140.0613  140.3817  169.1728 C.ar    1  UNL1        0.0403
     11 C         139.4421  140.2280  170.5304 C.ar    1  UNL1        0.1021
     12 N         140.3095  140.9483  171.5196 N.ar    1  UNL1       -0.2269
     13 C         141.4648  141.5472  170.7735 C.ar    1  UNL1        0.1406
     14 N         142.6366  142.3661  171.2274 N.ar    1  UNL1       -0.3374
     15 C         143.6550  142.8349  170.2309 C.ar    1  UNL1        0.0735
     16 C         143.5016  142.4846  168.7804 C.ar    1  UNL1        0.0186
     17 C         142.3298  141.6657  168.3265 C.ar    1  UNL1        0.0046
     18 C         141.3114  141.1970  169.3230 C.ar    1  UNL1        0.0370
     19 H         142.7374  142.5960  172.1794 H       1  UNL1        0.1674
     20 C         140.7912  137.6274  162.2116 C.3     1  UNL1        0.1118
     21 C         143.9406  139.9956  161.7388 C.ar    1  UNL1        0.1382
     22 C         144.0857  139.9795  160.2459 C.ar    1  UNL1        0.0369
     23 C         143.1328  139.1793  159.4083 C.ar    1  UNL1        0.0028
     24 C         142.0346  138.3953  160.0635 C.ar    1  UNL1       -0.0036
     25 C         141.8894  138.4114  161.5564 C.ar    1  UNL1       -0.0101
     26 C         142.8423  139.2116  162.3941 C.ar    1  UNL1        0.0331
     27 O         144.8935  140.7958  162.5764 O.3     1  UNL1       -0.4754
     28 C         145.2803  142.1824  162.1547 C.3     1  UNL1        0.2068
     29 C         144.5144  143.3643  162.6710 C.3     1  UNL1        0.0646
     30 C         143.5827  143.2037  163.8356 C.3     1  UNL1        0.0760
     31 C         137.7038  144.1740  163.1301 C.3     1  UNL1        0.0897
     32 N         139.1736  143.9315  163.3065 N.3     1  UNL1       -0.2691
     33 C         139.6563  142.6269  163.8678 C.3     1  UNL1        0.0897
     34 C         141.1260  142.3844  164.0442 C.3     1  UNL1        0.0897
     35 N         142.1130  143.4463  163.6592 N.3     1  UNL1       -0.2702
     36 C         141.6302  144.7508  163.0978 C.3     1  UNL1        0.0897
     37 C         140.1605  144.9933  162.9215 C.3     1  UNL1        0.0897
@<TRIPOS>BOND
     1    31    32    1
     2    32    33    1
     3    33    34    1
     4    34    35    1
     5    35    30    1
     6    30    29    1
     7    29    28    1
     8    28    27    1
     9    27    21    1
    10    21    22   ar
    11    22    23   ar
    12    23    24   ar
    13    24    25   ar
    14    25    20    1
    15    20     1    1
    16     1     2    2
    17     1     3   am
    18     3     5    1
    19     5     6   ar
    20     6     7   ar
    21     7    10    1
    22    10    11   ar
    23    11    12   ar
    24    12    13   ar
    25    13    14   ar
    26    14    15   ar
    27    15    16   ar
    28    16    17   ar
    29    17    18   ar
    30     7     8   ar
    31     8     9   ar
    32    25    26   ar
    33    35    36    1
    34    36    37    1
    35    37    32    1
    36    26    21   ar
    37     9     5   ar
    38    18    10   ar
    39    18    13    1
    40     3     4    1
    41    14    19    1
@<TRIPOS>MOLECULE
*****
 37 41 0 0 0
SMALL
GASTEIGER

@<TRIPOS>ATOM
      1 C         138.2363  141.9654  163.0402 C.2     1  UNL1        0.2320
      2 O         137.4289  142.7318  164.0456 O.2     1  UNL1       -0.2744
      3 N         139.0391  140.7748  163.4736 N.am    1  UNL1       -0.2639
      4 H         139.5690  140.2718  162.8138 H       1  UNL1        0.1567
      5 C         139.0345  140.3505  164.9123 C.ar    1  UNL1        0.1655
      6 N         139.6568  141.0982  166.0541 N.ar    1  UNL1       -0.2239
      7 C         139.4137  140.3138  167.3093 C.ar    1  UNL1        0.0913
      8 C         138.6411  139.0813  166.9434 C.ar    1  UNL1        0.0573
      9 S         138.4067  139.1039  165.4620 S.2     1  UNL1       -0.0508
     10 C         139.8641  140.6950  168.6884 C.ar    1  UNL1        0.0403
     11 C         139.0991  140.4712  169.9591 C.ar    1  UNL1        0.1021
     12 N         139.9208  141.0048  171.0949 N.ar    1  UNL1       -0.2269
     13 C         141.1936  141.5584  170.5261 C.ar    1  UNL1        0.1406
     14 N         142.3800  142.2121  171.1704 N.ar    1  UNL1       -0.3374
     15 C         143.5314  142.6743  170.3274 C.ar    1  UNL1        0.0735
     16 C         143.4963  142.4828  168.8401 C.ar    1  UNL1        0.0186
     17 C         142.3099  141.8291  168.1958 C.ar    1  UNL1        0.0046
     18 C         141.1586  141.3669  169.0388 C.ar    1  UNL1        0.0370
     19 H         142.4030  142.3378  172.1466 H       1  UNL1        0.1674
     20 C         138.2409  142.3897  161.6015 C.3     1  UNL1        0.1118
     21 C         141.8246  144.0347  161.1518 C.ar    1  UNL1        0.1382
     22 C         142.0575  143.8107  159.6870 C.ar    1  UNL1        0.0369
     23 C         141.0183  143.1130  158.8604 C.ar    1  UNL1        0.0028
     24 C         139.7461  142.6394  159.4985 C.ar    1  UNL1       -0.0036
     25 C         139.5131  142.8634  160.9633 C.ar    1  UNL1       -0.0101
     26 C         140.5523  143.5610  161.7900 C.ar    1  UNL1        0.0331
     27 O         142.8638  144.7323  161.9784 O.3     1  UNL1       -0.4754
     28 C         142.8001  144.6657  163.4756 C.3     1  UNL1        0.2068
     29 C         143.7221  143.7506  164.2256 C.3     1  UNL1        0.0646
     30 C         144.2975  142.5438  163.5455 C.3     1  UNL1        0.0760
     31 C         141.2426  137.3798  163.5077 C.3     1  UNL1        0.0897
     32 N         142.0063  138.6708  163.5172 N.3     1  UNL1       -0.2691
     33 C         142.2286  139.4201  162.2369 C.3     1  UNL1        0.0897
     34 C         142.9923  140.7111  162.2464 C.3     1  UNL1        0.0897
     35 N         143.5338  141.2528  163.5361 N.3     1  UNL1       -0.2702
     36 C         143.3115  140.5035  164.8164 C.3     1  UNL1        0.0897
     37 C         142.5478  139.2125  164.8069 C.3     1  UNL1        0.0897
@<TRIPOS>BOND
     1    31    32    1
     2    32    33    1
     3    33    34    1
     4    34    35    1
     5    35    30    1
     6    30    29    1
     7    29    28    1
     8    28    27    1
     9    27    21    1
    10    21    22   ar
    11    22    23   ar
    12    23    24   ar
    13    24    25   ar
    14    25    20    1
    15    20     1    1
    16     1     2    2
    17     1     3   am
    18     3     5    1
    19     5     6   ar
    20     6     7   ar
    21     7    10    1
    22    10    11   ar
    23    11    12   ar
    24    12    13   ar
    25    13    14   ar
    26    14    15   ar
    27    15    16   ar
    28    16    17   ar
    29    17    18   ar
    30     7     8   ar
    31     8     9   ar
    32    25    26   ar
    33    35    36    1
    34    36    37    1
    35    37    32    1
    36    26    21   ar
    37     9     5   ar
    38    18    10   ar
    39    18    13    1
    40     3     4    1
    41    14    19    1
@<TRIPOS>MOLECULE
*****
 37 41 0 0 0
SMALL
GASTEIGER

@<TRIPOS>ATOM
      1 C         142.6632  141.0439  161.2213 C.2     1  UNL1        0.2320
      2 O         141.5111  140.1288  160.9296 O.2     1  UNL1       -0.2744
      3 N         143.1984  141.1541  162.6182 N.am    1  UNL1       -0.2639
      4 H         143.9546  141.7547  162.8096 H       1  UNL1        0.1567
      5 C         142.5816  140.3491  163.7233 C.ar    1  UNL1        0.1655
      6 N         141.8327  140.8977  164.9016 N.ar    1  UNL1       -0.2239
      7 C         141.3936  139.7419  165.7508 C.ar    1  UNL1        0.0913
      8 C         141.8711  138.4789  165.0975 C.ar    1  UNL1        0.0573
      9 S         142.6053  138.8542  163.8445 S.2     1  UNL1       -0.0508
     10 C         140.6138  139.8330  167.0290 C.ar    1  UNL1        0.0403
     11 C         139.1503  139.5473  167.1912 C.ar    1  UNL1        0.1021
     12 N         138.7927  139.7635  168.6318 N.ar    1  UNL1       -0.2269
     13 C         140.0353  140.1829  169.3599 C.ar    1  UNL1        0.1406
     14 N         140.2873  140.5312  170.7970 N.ar    1  UNL1       -0.3374
     15 C         141.6648  140.9224  171.2434 C.ar    1  UNL1        0.0735
     16 C         142.7903  140.9654  170.2528 C.ar    1  UNL1        0.0186
     17 C         142.5383  140.6171  168.8157 C.ar    1  UNL1        0.0046
     18 C         141.1608  140.2258  168.3693 C.ar    1  UNL1        0.0370
     19 H         139.5486  140.5030  171.4472 H       1  UNL1        0.1674
     20 C         143.2801  141.8489  160.1161 C.3     1  UNL1        0.1118
     21 C         140.7425  144.8879  159.8409 C.ar    1  UNL1        0.1382
     22 C         141.1631  145.4908  158.5334 C.ar    1  UNL1        0.0369
     23 C         142.2893  144.8799  157.7535 C.ar    1  UNL1        0.0028
     24 C         142.9950  143.6659  158.2810 C.ar    1  UNL1       -0.0036
     25 C         142.5744  143.0629  159.5885 C.ar    1  UNL1       -0.0101
     26 C         141.4482  143.6738  160.3685 C.ar    1  UNL1        0.0331
     27 O         139.6162  145.4988  160.6208 O.3     1  UNL1       -0.4754
     28 C         139.8442  145.9628  162.0290 C.3     1  UNL1        0.2068
     29 C         139.3955  145.1127  163.1806 C.3     1  UNL1        0.0646
     30 C         138.0871  144.3827  163.1088 C.3     1  UNL1        0.0760
     31 C         138.0002  138.4784  162.0448 C.3     1  UNL1        0.0897
     32 N         138.0219  139.9546  162.3107 N.3     1  UNL1       -0.2691
     33 C         138.0044  140.4626  163.7220 C.3     1  UNL1        0.0897
     34 C         138.0261  141.9387  163.9880 C.3     1  UNL1        0.0897
     35 N         138.0654  142.9067  162.8428 N.3     1  UNL1       -0.2702
     36 C         138.0829  142.3986  161.4316 C.3     1  UNL1        0.0897
     37 C         138.0612  140.9225  161.1656 C.3     1  UNL1        0.0897
@<TRIPOS>BOND
     1    31    32    1
     2    32    33    1
     3    33    34    1
     4    34    35    1
     5    35    30    1
     6    30    29    1
     7    29    28    1
     8    28    27    1
     9    27    21    1
    10    21    22   ar
    11    22    23   ar
    12    23    24   ar
    13    24    25   ar
    14    25    20    1
    15    20     1    1
    16     1     2    2
    17     1     3   am
    18     3     5    1
    19     5     6   ar
    20     6     7   ar
    21     7    10    1
    22    10    11   ar
    23    11    12   ar
    24    12    13   ar
    25    13    14   ar
    26    14    15   ar
    27    15    16   ar
    28    16    17   ar
    29    17    18   ar
    30     7     8   ar
    31     8     9   ar
    32    25    26   ar
    33    35    36    1
    34    36    37    1
    35    37    32    1
    36    26    21   ar
    37     9     5   ar
    38    18    10   ar
    39    18    13    1
    40     3     4    1
    41    14    19    1
@<TRIPOS>MOLECULE
*****
 37 41 0 0 0
SMALL
GASTEIGER

@<TRIPOS>ATOM
      1 C         138.7713  140.0850  162.5436 C.2     1  UNL1        0.2320
      2 O         137.4308  140.5481  163.0320 O.2     1  UNL1       -0.2744
      3 N         139.7922  139.5809  163.5203 N.am    1  UNL1       -0.2639
      4 H         140.6720  139.2770  163.1997 H       1  UNL1        0.1567
      5 C         139.4725  139.5400  164.9851 C.ar    1  UNL1        0.1655
      6 N         140.1536  140.3357  166.0589 N.ar    1  UNL1       -0.2239
      7 C         139.5177  139.9837  167.3709 C.ar    1  UNL1        0.0913
      8 C         138.4435  138.9702  167.1082 C.ar    1  UNL1        0.0573
      9 S         138.4155  138.6960  165.6337 S.2     1  UNL1       -0.0508
     10 C         139.8905  140.5462  168.7105 C.ar    1  UNL1        0.0403
     11 C         139.0569  140.4836  169.9560 C.ar    1  UNL1        0.1021
     12 N         139.8136  141.1688  171.0551 N.ar    1  UNL1       -0.2269
     13 C         141.1148  141.6548  170.4889 C.ar    1  UNL1        0.1406
     14 N         142.2625  142.3981  171.1055 N.ar    1  UNL1       -0.3374
     15 C         143.4577  142.7565  170.2732 C.ar    1  UNL1        0.0735
     16 C         143.5053  142.3717  168.8242 C.ar    1  UNL1        0.0186
     17 C         142.3576  141.6285  168.2075 C.ar    1  UNL1        0.0046
     18 C         141.1623  141.2700  169.0398 C.ar    1  UNL1        0.0370
     19 H         142.2313  142.6506  172.0566 H       1  UNL1        0.1674
     20 C         139.0910  140.1259  161.0787 C.3     1  UNL1        0.1118
     21 C         139.8014  143.9688  160.3872 C.ar    1  UNL1        0.1382
     22 C         140.7709  143.8770  159.2463 C.ar    1  UNL1        0.0369
     23 C         141.1805  142.5349  158.7162 C.ar    1  UNL1        0.0028
     24 C         140.6206  141.2846  159.3270 C.ar    1  UNL1       -0.0036
     25 C         139.6510  141.3762  160.4679 C.ar    1  UNL1       -0.0101
     26 C         139.2414  142.7184  160.9980 C.ar    1  UNL1        0.0331
     27 O         139.3918  145.3109  160.9173 O.3     1  UNL1       -0.4754
     28 C         140.2431  146.0055  161.9386 C.3     1  UNL1        0.2068
     29 C         140.8166  145.2315  163.0884 C.3     1  UNL1        0.0646
     30 C         142.3007  145.1975  163.3037 C.3     1  UNL1        0.0760
     31 C         145.1046  139.9458  164.0508 C.3     1  UNL1        0.0897
     32 N         144.4035  141.2588  163.8640 N.3     1  UNL1       -0.2691
     33 C         145.0361  142.3350  163.0324 C.3     1  UNL1        0.0897
     34 C         144.3351  143.6479  162.8456 C.3     1  UNL1        0.0897
     35 N         143.0017  143.8846  163.4905 N.3     1  UNL1       -0.2702
     36 C         142.3691  142.8084  164.3221 C.3     1  UNL1        0.0897
     37 C         143.0702  141.4955  164.5089 C.3     1  UNL1        0.0897
@<TRIPOS>BOND
     1    31    32    1
     2    32    33    1
     3    33    34    1
     4    34    35    1
     5    35    30    1
     6    30    29    1
     7    29    28    1
     8    28    27    1
     9    27    21    1
    10    21    22   ar
    11    22    23   ar
    12    23    24   ar
    13    24    25   ar
    14    25    20    1
    15    20     1    1
    16     1     2    2
    17     1     3   am
    18     3     5    1
    19     5     6   ar
    20     6     7   ar
    21     7    10    1
    22    10    11   ar
    23    11    12   ar
    24    12    13   ar
    25    13    14   ar
    26    14    15   ar
    27    15    16   ar
    28    16    17   ar
    29    17    18   ar
    30     7     8   ar
    31     8     9   ar
    32    25    26   ar
    33    35    36    1
    34    36    37    1
    35    37    32    1
    36    26    21   ar
    37     9     5   ar
    38    18    10   ar
    39    18    13    1
    40     3     4    1
    41    14    19    1
@<TRIPOS>MOLECULE
*****
 37 41 0 0 0
SMALL
GASTEIGER

@<TRIPOS>ATOM
      1 C         144.2178  142.0386  162.6708 C.2     1  UNL1        0.2320
      2 O         145.2897  142.0665  163.7197 O.2     1  UNL1       -0.2744
      3 N         143.0095  141.1694  162.8562 N.am    1  UNL1       -0.2639
      4 H         142.3060  141.1510  162.1677 H       1  UNL1        0.1567
      5 C         142.8731  140.3281  164.0904 C.ar    1  UNL1        0.1655
      6 N         142.7583  140.8376  165.4966 N.ar    1  UNL1       -0.2239
      7 C         142.6417  139.6540  166.4105 C.ar    1  UNL1        0.0913
      8 C         142.6844  138.4128  165.5693 C.ar    1  UNL1        0.0573
      9 S         142.8274  138.8294  164.1354 S.2     1  UNL1       -0.0508
     10 C         142.5062  139.7029  167.9036 C.ar    1  UNL1        0.0403
     11 C         143.0486  138.6936  168.8716 C.ar    1  UNL1        0.1021
     12 N         142.6821  139.1366  170.2571 N.ar    1  UNL1       -0.2269
     13 C         141.9131  140.4196  170.1453 C.ar    1  UNL1        0.1406
     14 N         141.2979  141.3144  171.1800 N.ar    1  UNL1       -0.3374
     15 C         140.5740  142.5593  170.7602 C.ar    1  UNL1        0.0735
     16 C         140.4652  142.9092  169.3057 C.ar    1  UNL1        0.0186
     17 C         141.0804  142.0144  168.2709 C.ar    1  UNL1        0.0046
     18 C         141.8044  140.7696  168.6907 C.ar    1  UNL1        0.0370
     19 H         141.3693  141.0847  172.1347 H       1  UNL1        0.1674
     20 C         144.3543  142.8799  161.4364 C.3     1  UNL1        0.1118
     21 C         141.0150  145.0037  161.1381 C.ar    1  UNL1        0.1382
     22 C         140.7344  144.8858  159.6693 C.ar    1  UNL1        0.0369
     23 C         141.6604  144.0992  158.7896 C.ar    1  UNL1        0.0028
     24 C         142.8670  143.4306  159.3785 C.ar    1  UNL1       -0.0036
     25 C         143.1477  143.5485  160.8474 C.ar    1  UNL1       -0.0101
     26 C         142.2217  144.3351  161.7272 C.ar    1  UNL1        0.0331
     27 O         140.0891  145.7903  162.0178 O.3     1  UNL1       -0.4754
     28 C         138.9129  145.1169  162.6606 C.3     1  UNL1        0.2068
     29 C         138.9846  144.6930  164.0977 C.3     1  UNL1        0.0646
     30 C         139.9216  143.5968  164.5105 C.3     1  UNL1        0.0760
     31 C         138.7324  137.9103  163.0105 C.3     1  UNL1        0.0897
     32 N         139.0297  139.3320  163.3855 N.3     1  UNL1       -0.2691
     33 C         139.3770  140.3312  162.3221 C.3     1  UNL1        0.0897
     34 C         139.6743  141.7528  162.6971 C.3     1  UNL1        0.0897
     35 N         139.6243  142.1752  164.1355 N.3     1  UNL1       -0.2702
     36 C         139.2770  141.1760  165.1990 C.3     1  UNL1        0.0897
     37 C         138.9797  139.7543  164.8239 C.3     1  UNL1        0.0897
@<TRIPOS>BOND
     1    31    32    1
     2    32    33    1
     3    33    34    1
     4    34    35    1
     5    35    30    1
     6    30    29    1
     7    29    28    1
     8    28    27    1
     9    27    21    1
    10    21    22   ar
    11    22    23   ar
    12    23    24   ar
    13    24    25   ar
    14    25    20    1
    15    20     1    1
    16     1     2    2
    17     1     3   am
    18     3     5    1
    19     5     6   ar
    20     6     7   ar
    21     7    10    1
    22    10    11   ar
    23    11    12   ar
    24    12    13   ar
    25    13    14   ar
    26    14    15   ar
    27    15    16   ar
    28    16    17   ar
    29    17    18   ar
    30     7     8   ar
    31     8     9   ar
    32    25    26   ar
    33    35    36    1
    34    36    37    1
    35    37    32    1
    36    26    21   ar
    37     9     5   ar
    38    18    10   ar
    39    18    13    1
    40     3     4    1
    41    14    19    1
@<TRIPOS>MOLECULE
*****
 37 41 0 0 0
SMALL
GASTEIGER

@<TRIPOS>ATOM
      1 C         141.3473  137.5428  162.5012 C.2     1  UNL1        0.2320
      2 O         140.1016  137.6996  161.6806 O.2     1  UNL1       -0.2744
      3 N         142.6935  137.7022  161.8590 N.am    1  UNL1       -0.2639
      4 H         143.5111  137.5993  162.3976 H       1  UNL1        0.1567
      5 C         142.7939  138.0185  160.3963 C.ar    1  UNL1        0.1655
      6 N         142.6414  137.0395  159.2700 N.ar    1  UNL1       -0.2239
      7 C         142.8177  137.7852  157.9805 C.ar    1  UNL1        0.0913
      8 C         143.0792  139.2251  158.3097 C.ar    1  UNL1        0.0573
      9 S         143.0644  139.3692  159.8027 S.2     1  UNL1       -0.0508
     10 C         142.7452  137.1947  156.6035 C.ar    1  UNL1        0.0403
     11 C         142.5420  137.9562  155.3273 C.ar    1  UNL1        0.1021
     12 N         142.5345  136.9712  154.1960 N.ar    1  UNL1       -0.2269
     13 C         142.7330  135.6010  154.7731 C.ar    1  UNL1        0.1406
     14 N         142.8120  134.2453  154.1360 N.ar    1  UNL1       -0.3374
     15 C         143.0213  133.0279  154.9868 C.ar    1  UNL1        0.0735
     16 C         143.1515  133.1660  156.4748 C.ar    1  UNL1        0.0186
     17 C         143.0725  134.5216  157.1119 C.ar    1  UNL1        0.0046
     18 C         142.8632  135.7391  156.2611 C.ar    1  UNL1        0.0370
     19 H         142.7265  134.1546  153.1594 H       1  UNL1        0.1674
     20 C         141.2469  137.2266  163.9641 C.3     1  UNL1        0.1118
     21 C         139.4926  140.1313  166.0220 C.ar    1  UNL1        0.1382
     22 C         138.2796  139.4180  166.5414 C.ar    1  UNL1        0.0369
     23 C         138.0556  137.9743  166.2016 C.ar    1  UNL1        0.0028
     24 C         139.0447  137.2438  165.3426 C.ar    1  UNL1       -0.0036
     25 C         140.2578  137.9570  164.8231 C.ar    1  UNL1       -0.0101
     26 C         140.4818  139.4008  165.1628 C.ar    1  UNL1        0.0331
     27 O         139.7165  141.5751  166.3617 O.3     1  UNL1       -0.4754
     28 C         139.4679  142.6355  165.3303 C.3     1  UNL1        0.2068
     29 C         138.1655  142.6680  164.5869 C.3     1  UNL1        0.0646
     30 C         137.8082  143.8616  163.7516 C.3     1  UNL1        0.0760
     31 C         140.7632  144.9403  158.6423 C.3     1  UNL1        0.0897
     32 N         140.0244  144.6707  159.9197 N.3     1  UNL1       -0.2691
     33 C         139.3288  143.3571  160.1207 C.3     1  UNL1        0.0897
     34 C         138.5900  143.0873  161.3980 C.3     1  UNL1        0.0897
     35 N         138.5470  144.1313  162.4743 N.3     1  UNL1       -0.2702
     36 C         139.2426  145.4449  162.2733 C.3     1  UNL1        0.0897
     37 C         139.9814  145.7146  160.9959 C.3     1  UNL1        0.0897
@<TRIPOS>BOND
     1    31    32    1
     2    32    33    1
     3    33    34    1
     4    34    35    1
     5    35    30    1
     6    30    29    1
     7    29    28    1
     8    28    27    1
     9    27    21    1
    10    21    22   ar
    11    22    23   ar
    12    23    24   ar
    13    24    25   ar
    14    25    20    1
    15    20     1    1
    16     1     2    2
    17     1     3   am
    18     3     5    1
    19     5     6   ar
    20     6     7   ar
    21     7    10    1
    22    10    11   ar
    23    11    12   ar
    24    12    13   ar
    25    13    14   ar
    26    14    15   ar
    27    15    16   ar
    28    16    17   ar
    29    17    18   ar
    30     7     8   ar
    31     8     9   ar
    32    25    26   ar
    33    35    36    1
    34    36    37    1
    35    37    32    1
    36    26    21   ar
    37     9     5   ar
    38    18    10   ar
    39    18    13    1
    40     3     4    1
    41    14    19    1
@<TRIPOS>MOLECULE
*****
 37 41 0 0 0
SMALL
GASTEIGER

@<TRIPOS>ATOM
      1 C         143.9227  139.9703  162.2383 C.2     1  UNL1        0.2320
      2 O         144.4878  139.1044  163.3250 O.2     1  UNL1       -0.2744
      3 N         143.4732  141.3670  162.5497 N.am    1  UNL1       -0.2639
      4 H         143.1023  141.9353  161.8364 H       1  UNL1        0.1567
      5 C         143.5886  141.8979  163.9478 C.ar    1  UNL1        0.1655
      6 N         142.8754  141.3649  165.1550 N.ar    1  UNL1       -0.2239
      7 C         143.2835  142.1925  166.3375 C.ar    1  UNL1        0.0913
      8 C         144.2489  143.2371  165.8612 C.ar    1  UNL1        0.0573
      9 S         144.4375  143.0550  164.3843 S.2     1  UNL1       -0.0508
     10 C         142.8094  142.0081  167.7486 C.ar    1  UNL1        0.0403
     11 C         143.5262  142.4614  168.9859 C.ar    1  UNL1        0.1021
     12 N         142.6951  142.0714  170.1721 N.ar    1  UNL1       -0.2269
     13 C         141.4647  141.3771  169.6680 C.ar    1  UNL1        0.1406
     14 N         140.2892  140.7755  170.3794 N.ar    1  UNL1       -0.3374
     15 C         139.1843  140.1347  169.5929 C.ar    1  UNL1        0.0735
     16 C         139.2549  140.0956  168.0950 C.ar    1  UNL1        0.0186
     17 C         140.4305  140.6972  167.3837 C.ar    1  UNL1        0.0046
     18 C         141.5354  141.3380  168.1702 C.ar    1  UNL1        0.0370
     19 H         140.2428  140.8011  171.3624 H       1  UNL1        0.1674
     20 C         143.8073  139.4394  160.8401 C.3     1  UNL1        0.1118
     21 C         139.9775  138.4490  160.5199 C.ar    1  UNL1        0.1382
     22 C         139.7495  138.6691  159.0538 C.ar    1  UNL1        0.0369
     23 C         140.8739  139.1460  158.1831 C.ar    1  UNL1        0.0028
     24 C         142.2265  139.4028  158.7785 C.ar    1  UNL1       -0.0036
     25 C         142.4547  139.1827  160.2446 C.ar    1  UNL1       -0.0101
     26 C         141.3302  138.7057  161.1154 C.ar    1  UNL1        0.0331
     27 O         138.8530  137.9721  161.3906 O.3     1  UNL1       -0.4754
     28 C         138.1051  138.9472  162.2507 C.3     1  UNL1        0.2068
     29 C         138.5791  139.2350  163.6445 C.3     1  UNL1        0.0646
     30 C         138.1687  140.5050  164.3290 C.3     1  UNL1        0.0760
     31 C         139.6865  145.8096  161.9715 C.3     1  UNL1        0.0897
     32 N         139.3071  144.4834  162.5609 N.3     1  UNL1       -0.2691
     33 C         137.9028  144.2462  163.0319 C.3     1  UNL1        0.0897
     34 C         137.5234  142.9201  163.6213 C.3     1  UNL1        0.0897
     35 N         138.5481  141.8311  163.7396 N.3     1  UNL1       -0.2702
     36 C         139.9524  142.0682  163.2686 C.3     1  UNL1        0.0897
     37 C         140.3318  143.3945  162.6792 C.3     1  UNL1        0.0897
@<TRIPOS>BOND
     1    31    32    1
     2    32    33    1
     3    33    34    1
     4    34    35    1
     5    35    30    1
     6    30    29    1
     7    29    28    1
     8    28    27    1
     9    27    21    1
    10    21    22   ar
    11    22    23   ar
    12    23    24   ar
    13    24    25   ar
    14    25    20    1
    15    20     1    1
    16     1     2    2
    17     1     3   am
    18     3     5    1
    19     5     6   ar
    20     6     7   ar
    21     7    10    1
    22    10    11   ar
    23    11    12   ar
    24    12    13   ar
    25    13    14   ar
    26    14    15   ar
    27    15    16   ar
    28    16    17   ar
    29    17    18   ar
    30     7     8   ar
    31     8     9   ar
    32    25    26   ar
    33    35    36    1
    34    36    37    1
    35    37    32    1
    36    26    21   ar
    37     9     5   ar
    38    18    10   ar
    39    18    13    1
    40     3     4    1
    41    14    19    1
@<TRIPOS>MOLECULE
*****
 37 41 0 0 0
SMALL
GASTEIGER

@<TRIPOS>ATOM
      1 C         140.2150  140.4647  160.6791 C.2     1  UNL1        0.2320
      2 O         141.3644  139.5270  160.9016 O.2     1  UNL1       -0.2744
      3 N         139.2522  140.7488  161.7937 N.am    1  UNL1       -0.2639
      4 H         138.4978  141.3643  161.6476 H       1  UNL1        0.1567
      5 C         139.4389  140.0954  163.1308 C.ar    1  UNL1        0.1655
      6 N         140.4992  140.4327  164.1368 N.ar    1  UNL1       -0.2239
      7 C         140.3137  139.5356  165.3245 C.ar    1  UNL1        0.0913
      8 C         139.1387  138.6437  165.0527 C.ar    1  UNL1        0.0573
      9 S         138.5980  138.9897  163.6969 S.2     1  UNL1       -0.0508
     10 C         141.1554  139.5311  166.5661 C.ar    1  UNL1        0.0403
     11 C         142.6280  139.2537  166.6319 C.ar    1  UNL1        0.1021
     12 N         143.0549  139.3544  168.0664 N.ar    1  UNL1       -0.2269
     13 C         141.8461  139.6940  168.8870 C.ar    1  UNL1        0.1406
     14 N         141.6628  139.9179  170.3588 N.ar    1  UNL1       -0.3374
     15 C         140.3054  140.2510  170.9034 C.ar    1  UNL1        0.0735
     16 C         139.1314  140.3602  169.9761 C.ar    1  UNL1        0.0186
     17 C         139.3148  140.1363  168.5043 C.ar    1  UNL1        0.0046
     18 C         140.6721  139.8032  167.9598 C.ar    1  UNL1        0.0370
     19 H         142.4333  139.8462  170.9674 H       1  UNL1        0.1674
     20 C         140.0283  141.1183  159.3419 C.3     1  UNL1        0.1118
     21 C         140.3410  145.0637  159.6356 C.ar    1  UNL1        0.1382
     22 C         141.4630  145.3313  158.6767 C.ar    1  UNL1        0.0369
     23 C         142.1067  144.1945  157.9395 C.ar    1  UNL1        0.0028
     24 C         141.6285  142.7902  158.1612 C.ar    1  UNL1       -0.0036
     25 C         140.5065  142.5225  159.1201 C.ar    1  UNL1       -0.0101
     26 C         139.8627  143.6593  159.8574 C.ar    1  UNL1        0.0331
     27 O         139.6973  146.2004  160.3728 O.3     1  UNL1       -0.4754
     28 C         139.5213  146.1255  161.8606 C.3     1  UNL1        0.2068
     29 C         140.6595  145.6774  162.7288 C.3     1  UNL1        0.0646
     30 C         140.6128  144.3328  163.3919 C.3     1  UNL1        0.0760
     31 C         145.6162  141.0595  163.8933 C.3     1  UNL1        0.0897
     32 N         144.3653  141.8778  163.7680 N.3     1  UNL1       -0.2691
     33 C         143.7253  142.0684  162.4249 C.3     1  UNL1        0.0897
     34 C         142.4744  142.8867  162.2996 C.3     1  UNL1        0.0897
     35 N         141.8636  143.5144  163.5173 N.3     1  UNL1       -0.2702
     36 C         142.5037  143.3239  164.8604 C.3     1  UNL1        0.0897
     37 C         143.7546  142.5055  164.9857 C.3     1  UNL1        0.0897
@<TRIPOS>BOND
     1    31    32    1
     2    32    33    1
     3    33    34    1
     4    34    35    1
     5    35    30    1
     6    30    29    1
     7    29    28    1
     8    28    27    1
     9    27    21    1
    10    21    22   ar
    11    22    23   ar
    12    23    24   ar
    13    24    25   ar
    14    25    20    1
    15    20     1    1
    16     1     2    2
    17     1     3   am
    18     3     5    1
    19     5     6   ar
    20     6     7   ar
    21     7    10    1
    22    10    11   ar
    23    11    12   ar
    24    12    13   ar
    25    13    14   ar
    26    14    15   ar
    27    15    16   ar
    28    16    17   ar
    29    17    18   ar
    30     7     8   ar
    31     8     9   ar
    32    25    26   ar
    33    35    36    1
    34    36    37    1
    35    37    32    1
    36    26    21   ar
    37     9     5   ar
    38    18    10   ar
    39    18    13    1
    40     3     4    1
    41    14    19    1
@<TRIPOS>MOLECULE
*****
 37 41 0 0 0
SMALL
GASTEIGER

@<TRIPOS>ATOM
      1 C         138.7031  139.2288  160.0164 C.2     1  UNL1        0.2320
      2 O         139.5241  138.3415  160.9045 O.2     1  UNL1       -0.2744
      3 N         139.0425  139.3536  158.5607 N.am    1  UNL1       -0.2639
      4 H         138.5037  139.9360  157.9778 H       1  UNL1        0.1567
      5 C         140.2029  138.5913  157.9931 C.ar    1  UNL1        0.1655
      6 N         140.1166  137.4170  157.0637 N.ar    1  UNL1       -0.2239
      7 C         141.5136  136.9693  156.7514 C.ar    1  UNL1        0.0913
      8 C         142.4635  137.8668  157.4876 C.ar    1  UNL1        0.0573
      9 S         141.6535  138.8693  158.2550 S.2     1  UNL1       -0.0508
     10 C         141.8941  135.8249  155.8594 C.ar    1  UNL1        0.0403
     11 C         141.4564  135.6318  154.4377 C.ar    1  UNL1        0.1021
     12 N         142.0709  134.3603  153.9322 N.ar    1  UNL1       -0.2269
     13 C         142.8884  133.7675  155.0414 C.ar    1  UNL1        0.1406
     14 N         143.7182  132.5205  155.1207 N.ar    1  UNL1       -0.3374
     15 C         144.4387  132.1787  156.3911 C.ar    1  UNL1        0.0735
     16 C         144.3294  133.0839  157.5822 C.ar    1  UNL1        0.0186
     17 C         143.4997  134.3309  157.5029 C.ar    1  UNL1        0.0046
     18 C         142.7792  134.6727  156.2325 C.ar    1  UNL1        0.0370
     19 H         143.7899  131.9264  154.3389 H       1  UNL1        0.1674
     20 C         137.5427  139.9912  160.5841 C.3     1  UNL1        0.1118
     21 C         138.1161  143.3697  162.5859 C.ar    1  UNL1        0.1382
     22 C         138.1848  142.8568  163.9938 C.ar    1  UNL1        0.0369
     23 C         138.0395  141.3887  164.2651 C.ar    1  UNL1        0.0028
     24 C         137.8255  140.4335  163.1286 C.ar    1  UNL1       -0.0036
     25 C         137.7567  140.9463  161.7206 C.ar    1  UNL1       -0.0101
     26 C         137.9021  142.4145  161.4492 C.ar    1  UNL1        0.0331
     27 O         138.2615  144.8378  162.3145 O.3     1  UNL1       -0.4754
     28 C         139.6267  145.4419  162.1684 C.3     1  UNL1        0.2068
     29 C         140.8013  144.5695  161.8377 C.3     1  UNL1        0.0646
     30 C         141.7639  144.1673  162.9155 C.3     1  UNL1        0.0760
     31 C         141.4723  138.6689  165.2993 C.3     1  UNL1        0.0897
     32 N         141.5452  140.0435  164.7033 N.3     1  UNL1       -0.2691
     33 C         141.6981  141.2402  165.5946 C.3     1  UNL1        0.0897
     34 C         141.7710  142.6148  164.9987 C.3     1  UNL1        0.0897
     35 N         141.6910  142.7927  163.5114 N.3     1  UNL1       -0.2702
     36 C         141.5380  141.5960  162.6201 C.3     1  UNL1        0.0897
     37 C         141.4651  140.2214  163.2161 C.3     1  UNL1        0.0897
@<TRIPOS>BOND
     1    31    32    1
     2    32    33    1
     3    33    34    1
     4    34    35    1
     5    35    30    1
     6    30    29    1
     7    29    28    1
     8    28    27    1
     9    27    21    1
    10    21    22   ar
    11    22    23   ar
    12    23    24   ar
    13    24    25   ar
    14    25    20    1
    15    20     1    1
    16     1     2    2
    17     1     3   am
    18     3     5    1
    19     5     6   ar
    20     6     7   ar
    21     7    10    1
    22    10    11   ar
    23    11    12   ar
    24    12    13   ar
    25    13    14   ar
    26    14    15   ar
    27    15    16   ar
    28    16    17   ar
    29    17    18   ar
    30     7     8   ar
    31     8     9   ar
    32    25    26   ar
    33    35    36    1
    34    36    37    1
    35    37    32    1
    36    26    21   ar
    37     9     5   ar
    38    18    10   ar
    39    18    13    1
    40     3     4    1
    41    14    19    1
