@<TRIPOS>MOLECULE
*****
 38 44 0 0 0
SMALL
GASTEIGER

@<TRIPOS>ATOM
      1 C         138.4530  141.8125  164.4838 C.3     1  UNL1        0.0955
      2 C         137.9267  141.8453  163.0794 C.3     1  UNL1        0.0287
      3 C         137.9111  143.1354  162.3143 C.3     1  UNL1        0.0193
      4 C         138.4218  144.3927  162.9535 C.3     1  UNL1        0.0700
      5 C         138.9480  144.3598  164.3577 C.3     1  UNL1        0.0193
      6 C         138.9637  143.0697  165.1229 C.3     1  UNL1        0.0287
      7 C         138.4505  143.7095  163.4124 C.3     1  UNL1        0.1562
      8 O         138.4646  142.5431  164.1042 O.3     1  UNL1       -0.3571
      9 N         138.4062  145.6828  162.1884 N.3     1  UNL1       -0.2926
     10 H         138.0897  146.4050  162.8354 H       1  UNL1        0.1236
     11 C         139.6652  146.1927  161.5522 C.3     1  UNL1        0.1152
     12 C         140.8076  145.2555  161.2936 C.ar    1  UNL1        0.0780
     13 C         141.7390  144.8824  162.4086 C.ar    1  UNL1        0.0535
     14 C         142.8813  143.9453  162.1498 C.ar    1  UNL1        0.1469
     15 C         143.0922  143.3813  160.7760 C.ar    1  UNL1        0.0785
     16 C         142.1608  143.7544  159.6610 C.ar    1  UNL1        0.1076
     17 N         141.0185  144.6915  159.9198 N.ar    1  UNL1       -0.2460
     18 S         144.2345  142.4441  160.5173 S.3     1  UNL1       -0.1053
     19 C         145.1659  142.0711  161.6324 C.3     1  UNL1        0.1095
     20 C         144.9549  142.6352  163.0061 C.3     1  UNL1        0.2174
     21 O         143.8126  143.5723  163.2649 O.3     1  UNL1       -0.4739
     22 C         138.4686  140.5224  165.2489 C.3     1  UNL1        0.0604
     23 O         138.8522  140.9199  170.3457 O.2     1  UNL1       -0.2670
     24 C         140.0662  140.3049  169.7148 C.ar    1  UNL1        0.2611
     25 C         141.2232  139.8817  170.5704 C.ar    1  UNL1        0.0623
     26 C         142.4372  139.2667  169.9395 C.ar    1  UNL1        0.0254
     27 C         142.4942  139.0750  168.4530 C.ar    1  UNL1        0.0972
     28 N         143.5630  138.4961  167.5626 N.ar    1  UNL1       -0.2400
     29 C         143.4766  138.3681  166.0706 C.ar    1  UNL1        0.1282
     30 C         142.2493  138.8378  165.3474 C.ar    1  UNL1        0.1588
     31 F         142.1629  138.7098  163.8554 F       1  UNL1       -0.2027
     32 C         141.1083  139.4354  166.1162 C.ar    1  UNL1        0.0500
     33 C         141.3372  139.4983  167.5973 C.ar    1  UNL1        0.0806
     34 N         140.1232  140.1132  168.2282 N.ar    1  UNL1       -0.2915
     35 C         139.1441  140.4304  167.1370 C.3     1  UNL1        0.1402
     36 C         139.7529  140.0115  165.8317 C.3     1  UNL1        0.1335
     37 O         140.0933  139.6994  164.4046 O.3     1  UNL1       -0.3806
     38 H         139.3575  139.9653  163.8311 H       1  UNL1        0.2108
@<TRIPOS>BOND
     1    23    24    2
     2    24    25   ar
     3    25    26   ar
     4    26    27   ar
     5    27    28   ar
     6    28    29   ar
     7    29    30   ar
     8    30    31    1
     9    30    32   ar
    10    32    33   ar
    11    33    34   ar
    12    34    35    1
    13    35    36    1
    14    36    37    1
    15    36    22    1
    16    22     1    1
    17     1     2    1
    18     2     3    1
    19     3     4    1
    20     4     9    1
    21     9    11    1
    22    11    12    1
    23    12    13   ar
    24    13    14   ar
    25    14    15   ar
    26    15    16   ar
    27    16    17   ar
    28    15    18    1
    29    18    19    1
    30    19    20    1
    31    20    21    1
    32     4     5    1
    33     5     6    1
    34     4     7    1
    35     7     8    1
    36    34    24   ar
    37     6     1    1
    38    33    27   ar
    39     8     1    1
    40    36    32    1
    41    17    12   ar
    42    21    14    1
    43    37    38    1
    44     9    10    1
@<TRIPOS>MOLECULE
*****
 38 44 0 0 0
SMALL
GASTEIGER

@<TRIPOS>ATOM
      1 C         138.4733  139.2994  164.6122 C.3     1  UNL1        0.0955
      2 C         138.8681  138.6040  163.3430 C.3     1  UNL1        0.0287
      3 C         138.5578  139.2314  162.0163 C.3     1  UNL1        0.0193
      4 C         137.8528  140.5542  161.9587 C.3     1  UNL1        0.0700
      5 C         137.4581  141.2495  163.2278 C.3     1  UNL1        0.0193
      6 C         137.7683  140.6222  164.5546 C.3     1  UNL1        0.0287
      7 C         138.0015  140.2496  162.7092 C.3     1  UNL1        0.1562
      8 O         138.2820  139.6823  163.9088 O.3     1  UNL1       -0.3571
      9 N         137.5426  141.1815  160.6320 N.3     1  UNL1       -0.2926
     10 H         136.6477  141.6602  160.7347 H       1  UNL1        0.1236
     11 C         138.4958  142.1702  160.0288 C.3     1  UNL1        0.1152
     12 C         139.4155  142.9603  160.9120 C.ar    1  UNL1        0.0780
     13 C         140.8698  142.6019  160.9922 C.ar    1  UNL1        0.0535
     14 C         141.7894  143.3920  161.8754 C.ar    1  UNL1        0.1469
     15 C         141.2546  144.5406  162.6784 C.ar    1  UNL1        0.0785
     16 C         139.8003  144.8990  162.5982 C.ar    1  UNL1        0.1076
     17 N         138.8807  144.1089  161.7150 N.ar    1  UNL1       -0.2460
     18 S         142.1742  145.3308  163.5616 S.3     1  UNL1       -0.1053
     19 C         143.6286  144.9722  163.6418 C.3     1  UNL1        0.1095
     20 C         144.1632  143.8237  162.8388 C.3     1  UNL1        0.2174
     21 O         143.2437  143.0336  161.9556 O.3     1  UNL1       -0.4739
     22 C         138.7835  138.6720  165.9389 C.3     1  UNL1        0.0604
     23 O         143.1897  141.0420  164.8201 O.2     1  UNL1       -0.2670
     24 C         142.7147  141.3203  166.2154 C.ar    1  UNL1        0.2611
     25 C         143.5154  142.2132  167.1161 C.ar    1  UNL1        0.0623
     26 C         143.0405  142.4915  168.5115 C.ar    1  UNL1        0.0254
     27 C         141.7648  141.8768  169.0061 C.ar    1  UNL1        0.0972
     28 N         141.0585  141.9775  170.3333 N.ar    1  UNL1       -0.2400
     29 C         139.7701  141.2955  170.6866 C.ar    1  UNL1        0.1282
     30 C         139.0794  140.4277  169.6767 C.ar    1  UNL1        0.1588
     31 F         137.7910  139.7456  170.0300 F       1  UNL1       -0.2027
     32 C         139.6771  140.2419  168.3135 C.ar    1  UNL1        0.0500
     33 C         140.9640  140.9838  168.1053 C.ar    1  UNL1        0.0806
     34 N         141.4390  140.7055  166.7100 N.ar    1  UNL1       -0.2915
     35 C         140.4456  139.7917  166.0558 C.3     1  UNL1        0.1402
     36 C         139.3566  139.5051  167.0468 C.3     1  UNL1        0.1335
     37 O         138.1479  139.0444  167.8062 O.3     1  UNL1       -0.3806
     38 H         137.6135  138.4639  167.2421 H       1  UNL1        0.2108
@<TRIPOS>BOND
     1    23    24    2
     2    24    25   ar
     3    25    26   ar
     4    26    27   ar
     5    27    28   ar
     6    28    29   ar
     7    29    30   ar
     8    30    31    1
     9    30    32   ar
    10    32    33   ar
    11    33    34   ar
    12    34    35    1
    13    35    36    1
    14    36    37    1
    15    36    22    1
    16    22     1    1
    17     1     2    1
    18     2     3    1
    19     3     4    1
    20     4     9    1
    21     9    11    1
    22    11    12    1
    23    12    13   ar
    24    13    14   ar
    25    14    15   ar
    26    15    16   ar
    27    16    17   ar
    28    15    18    1
    29    18    19    1
    30    19    20    1
    31    20    21    1
    32     4     5    1
    33     5     6    1
    34     4     7    1
    35     7     8    1
    36    34    24   ar
    37     6     1    1
    38    33    27   ar
    39     8     1    1
    40    36    32    1
    41    17    12   ar
    42    21    14    1
    43    37    38    1
    44     9    10    1
@<TRIPOS>MOLECULE
*****
 38 44 0 0 0
SMALL
GASTEIGER

@<TRIPOS>ATOM
      1 C         138.2771  141.6605  164.6985 C.3     1  UNL1        0.0955
      2 C         139.2475  142.5648  165.3991 C.3     1  UNL1        0.0287
      3 C         140.1337  142.0206  166.4801 C.3     1  UNL1        0.0193
      4 C         140.0494  140.5721  166.8606 C.3     1  UNL1        0.0700
      5 C         139.0790  139.6679  166.1601 C.3     1  UNL1        0.0193
      6 C         138.1928  140.2121  165.0791 C.3     1  UNL1        0.0287
      7 C         139.5433  140.8246  166.2620 C.3     1  UNL1        0.1562
      8 O         138.7421  141.3167  165.2846 O.3     1  UNL1       -0.3571
      9 N         140.9355  140.0279  167.9416 N.3     1  UNL1       -0.2926
     10 H         140.4644  139.2078  168.3235 H       1  UNL1        0.1236
     11 C         142.3399  139.6101  167.6206 C.3     1  UNL1        0.1152
     12 C         142.8703  139.7712  166.2268 C.ar    1  UNL1        0.0780
     13 C         142.6234  138.7039  165.2022 C.ar    1  UNL1        0.0535
     14 C         143.1538  138.8651  163.8084 C.ar    1  UNL1        0.1469
     15 C         143.9312  140.0936  163.4392 C.ar    1  UNL1        0.0785
     16 C         144.1782  141.1609  164.4637 C.ar    1  UNL1        0.1076
     17 N         143.6477  140.9997  165.8575 N.ar    1  UNL1       -0.2460
     18 S         144.4616  140.2548  162.0454 S.3     1  UNL1       -0.1053
     19 C         144.2146  139.1873  161.0208 C.3     1  UNL1        0.1095
     20 C         143.4372  137.9589  161.3901 C.3     1  UNL1        0.2174
     21 O         142.9068  137.7977  162.7839 O.3     1  UNL1       -0.4739
     22 C         137.3909  142.2048  163.6175 C.3     1  UNL1        0.0604
     23 O         140.3005  146.1355  162.0791 O.2     1  UNL1       -0.2670
     24 C         140.0513  145.1325  160.9918 C.ar    1  UNL1        0.2611
     25 C         140.6359  145.3452  159.6270 C.ar    1  UNL1        0.0623
     26 C         140.3868  144.3423  158.5397 C.ar    1  UNL1        0.0254
     27 C         139.5530  143.1267  158.8174 C.ar    1  UNL1        0.0972
     28 N         139.1447  141.9750  157.9357 N.ar    1  UNL1       -0.2400
     29 C         138.2952  140.8138  158.3598 C.ar    1  UNL1        0.1282
     30 C         137.7792  140.7362  159.7661 C.ar    1  UNL1        0.1588
     31 F         136.9297  139.5750  160.1903 F       1  UNL1       -0.2027
     32 C         138.1126  141.8199  160.7483 C.ar    1  UNL1        0.0500
     33 C         138.9684  142.9140  160.1823 C.ar    1  UNL1        0.0806
     34 N         139.2176  143.9170  161.2695 N.ar    1  UNL1       -0.2915
     35 C         138.5157  143.4426  162.5074 C.3     1  UNL1        0.1402
     36 C         137.8328  142.1465  162.1853 C.3     1  UNL1        0.1335
     37 O         137.0575  140.8626  162.1625 O.3     1  UNL1       -0.3806
     38 H         136.6692  140.7039  163.0371 H       1  UNL1        0.2108
@<TRIPOS>BOND
     1    23    24    2
     2    24    25   ar
     3    25    26   ar
     4    26    27   ar
     5    27    28   ar
     6    28    29   ar
     7    29    30   ar
     8    30    31    1
     9    30    32   ar
    10    32    33   ar
    11    33    34   ar
    12    34    35    1
    13    35    36    1
    14    36    37    1
    15    36    22    1
    16    22     1    1
    17     1     2    1
    18     2     3    1
    19     3     4    1
    20     4     9    1
    21     9    11    1
    22    11    12    1
    23    12    13   ar
    24    13    14   ar
    25    14    15   ar
    26    15    16   ar
    27    16    17   ar
    28    15    18    1
    29    18    19    1
    30    19    20    1
    31    20    21    1
    32     4     5    1
    33     5     6    1
    34     4     7    1
    35     7     8    1
    36    34    24   ar
    37     6     1    1
    38    33    27   ar
    39     8     1    1
    40    36    32    1
    41    17    12   ar
    42    21    14    1
    43    37    38    1
    44     9    10    1
@<TRIPOS>MOLECULE
*****
 38 44 0 0 0
SMALL
GASTEIGER

@<TRIPOS>ATOM
      1 C         138.1401  140.5320  164.0166 C.3     1  UNL1        0.0955
      2 C         138.1822  142.0312  164.0454 C.3     1  UNL1        0.0287
      3 C         138.1131  142.8082  162.7642 C.3     1  UNL1        0.0193
      4 C         138.0020  142.0861  161.4542 C.3     1  UNL1        0.0700
      5 C         137.9599  140.5869  161.4254 C.3     1  UNL1        0.0193
      6 C         138.0290  139.8099  162.7066 C.3     1  UNL1        0.0287
      7 C         138.0368  141.6171  162.1302 C.3     1  UNL1        0.1562
      8 O         138.0993  140.9146  163.2887 O.3     1  UNL1       -0.3571
      9 N         137.9329  142.8630  160.1730 N.3     1  UNL1       -0.2926
     10 H         137.4259  143.7241  160.3777 H       1  UNL1        0.1236
     11 C         139.1958  143.2613  159.4684 C.3     1  UNL1        0.1152
     12 C         140.5004  143.2591  160.2089 C.ar    1  UNL1        0.0780
     13 C         141.2916  141.9906  160.3306 C.ar    1  UNL1        0.0535
     14 C         142.5961  141.9885  161.0710 C.ar    1  UNL1        0.1469
     15 C         143.1094  143.2550  161.6897 C.ar    1  UNL1        0.0785
     16 C         142.3181  144.5234  161.5680 C.ar    1  UNL1        0.1076
     17 N         141.0136  144.5255  160.8275 N.ar    1  UNL1       -0.2460
     18 S         144.4139  143.2529  162.4302 S.3     1  UNL1       -0.1053
     19 C         145.2051  141.9843  162.5519 C.3     1  UNL1        0.1095
     20 C         144.6919  140.7180  161.9332 C.3     1  UNL1        0.2174
     21 O         143.3873  140.7200  161.1927 O.3     1  UNL1       -0.4739
     22 C         138.2092  139.7550  165.2979 C.3     1  UNL1        0.0604
     23 O         138.4488  140.9071  170.2876 O.2     1  UNL1       -0.2670
     24 C         139.7409  140.3670  169.7502 C.ar    1  UNL1        0.2611
     25 C         140.9259  140.2162  170.6573 C.ar    1  UNL1        0.0623
     26 C         142.2180  139.6761  170.1198 C.ar    1  UNL1        0.0254
     27 C         142.3250  139.2868  168.6752 C.ar    1  UNL1        0.0972
     28 N         143.4733  138.7277  167.8757 N.ar    1  UNL1       -0.2400
     29 C         143.4303  138.3823  166.4167 C.ar    1  UNL1        0.1282
     30 C         142.1673  138.5884  165.6341 C.ar    1  UNL1        0.1588
     31 F         142.1243  138.2430  164.1751 F       1  UNL1       -0.2027
     32 C         140.9473  139.1399  166.3106 C.ar    1  UNL1        0.0500
     33 C         141.1400  139.4377  167.7681 C.ar    1  UNL1        0.0806
     34 N         139.8479  139.9778  168.3055 N.ar    1  UNL1       -0.2915
     35 C         138.8568  140.0138  167.1802 C.3     1  UNL1        0.1402
     36 C         139.5362  139.4959  165.9473 C.3     1  UNL1        0.1335
     37 O         139.9383  139.0322  164.5786 O.3     1  UNL1       -0.3806
     38 H         139.1856  139.1209  163.9731 H       1  UNL1        0.2108
@<TRIPOS>BOND
     1    23    24    2
     2    24    25   ar
     3    25    26   ar
     4    26    27   ar
     5    27    28   ar
     6    28    29   ar
     7    29    30   ar
     8    30    31    1
     9    30    32   ar
    10    32    33   ar
    11    33    34   ar
    12    34    35    1
    13    35    36    1
    14    36    37    1
    15    36    22    1
    16    22     1    1
    17     1     2    1
    18     2     3    1
    19     3     4    1
    20     4     9    1
    21     9    11    1
    22    11    12    1
    23    12    13   ar
    24    13    14   ar
    25    14    15   ar
    26    15    16   ar
    27    16    17   ar
    28    15    18    1
    29    18    19    1
    30    19    20    1
    31    20    21    1
    32     4     5    1
    33     5     6    1
    34     4     7    1
    35     7     8    1
    36    34    24   ar
    37     6     1    1
    38    33    27   ar
    39     8     1    1
    40    36    32    1
    41    17    12   ar
    42    21    14    1
    43    37    38    1
    44     9    10    1
@<TRIPOS>MOLECULE
*****
 38 44 0 0 0
SMALL
GASTEIGER

@<TRIPOS>ATOM
      1 C         143.2945  142.9803  164.4311 C.3     1  UNL1        0.0955
      2 C         142.3374  144.1310  164.5312 C.3     1  UNL1        0.0287
      3 C         141.9296  144.8770  163.2953 C.3     1  UNL1        0.0193
      4 C         142.4789  144.4723  161.9595 C.3     1  UNL1        0.0700
      5 C         143.4359  143.3217  161.8595 C.3     1  UNL1        0.0193
      6 C         143.8437  142.5756  163.0953 C.3     1  UNL1        0.0287
      7 C         142.7316  144.0333  162.6087 C.3     1  UNL1        0.1562
      8 O         143.1003  143.3588  163.7261 O.3     1  UNL1       -0.3571
      9 N         142.0711  145.2183  160.7237 N.3     1  UNL1       -0.2926
     10 H         142.7851  145.0335  160.0191 H       1  UNL1        0.1236
     11 C         140.7454  144.9367  160.0809 C.3     1  UNL1        0.1152
     12 C         139.9500  143.7351  160.4976 C.ar    1  UNL1        0.0780
     13 C         140.3427  142.3708  160.0136 C.ar    1  UNL1        0.0535
     14 C         139.5472  141.1694  160.4303 C.ar    1  UNL1        0.1469
     15 C         138.3590  141.3322  161.3312 C.ar    1  UNL1        0.0785
     16 C         137.9662  142.6965  161.8152 C.ar    1  UNL1        0.1076
     17 N         138.7617  143.8980  161.3985 N.ar    1  UNL1       -0.2460
     18 S         137.5635  140.1307  161.7479 S.3     1  UNL1       -0.1053
     19 C         137.9564  138.7664  161.2638 C.3     1  UNL1        0.1095
     20 C         139.1446  138.6036  160.3630 C.3     1  UNL1        0.2174
     21 O         139.9401  139.8051  159.9462 O.3     1  UNL1       -0.4739
     22 C         143.7023  142.2343  165.6669 C.3     1  UNL1        0.0604
     23 O         140.0115  139.0301  164.1196 O.2     1  UNL1       -0.2670
     24 C         139.8566  139.4520  165.5507 C.ar    1  UNL1        0.2611
     25 C         138.7071  138.9360  166.3646 C.ar    1  UNL1        0.0623
     26 C         138.5522  139.3579  167.7956 C.ar    1  UNL1        0.0254
     27 C         139.5468  140.2959  168.4129 C.ar    1  UNL1        0.0972
     28 N         139.6407  140.8784  169.7993 N.ar    1  UNL1       -0.2400
     29 C         140.7085  141.8169  170.2777 C.ar    1  UNL1        0.1282
     30 C         141.8010  142.2481  169.3447 C.ar    1  UNL1        0.1588
     31 F         142.8689  143.1866  169.8231 F       1  UNL1       -0.2027
     32 C         141.8257  141.7407  167.9333 C.ar    1  UNL1        0.0500
     33 C         140.6963  140.8119  167.5991 C.ar    1  UNL1        0.0806
     34 N         140.8512  140.3900  166.1680 N.ar    1  UNL1       -0.2915
     35 C         142.0764  141.0580  165.6178 C.3     1  UNL1        0.1402
     36 C         142.6787  141.8928  166.7089 C.3     1  UNL1        0.1335
     37 O         143.4949  142.7990  167.5821 O.3     1  UNL1       -0.3806
     38 H         144.2461  143.1456  167.0756 H       1  UNL1        0.2108
@<TRIPOS>BOND
     1    23    24    2
     2    24    25   ar
     3    25    26   ar
     4    26    27   ar
     5    27    28   ar
     6    28    29   ar
     7    29    30   ar
     8    30    31    1
     9    30    32   ar
    10    32    33   ar
    11    33    34   ar
    12    34    35    1
    13    35    36    1
    14    36    37    1
    15    36    22    1
    16    22     1    1
    17     1     2    1
    18     2     3    1
    19     3     4    1
    20     4     9    1
    21     9    11    1
    22    11    12    1
    23    12    13   ar
    24    13    14   ar
    25    14    15   ar
    26    15    16   ar
    27    16    17   ar
    28    15    18    1
    29    18    19    1
    30    19    20    1
    31    20    21    1
    32     4     5    1
    33     5     6    1
    34     4     7    1
    35     7     8    1
    36    34    24   ar
    37     6     1    1
    38    33    27   ar
    39     8     1    1
    40    36    32    1
    41    17    12   ar
    42    21    14    1
    43    37    38    1
    44     9    10    1
@<TRIPOS>MOLECULE
*****
 38 44 0 0 0
SMALL
GASTEIGER

@<TRIPOS>ATOM
      1 C         143.8225  139.6395  164.1395 C.3     1  UNL1        0.0955
      2 C         143.7809  139.0090  162.7790 C.3     1  UNL1        0.0287
      3 C         144.1236  139.8211  161.5653 C.3     1  UNL1        0.0193
      4 C         144.5081  141.2635  161.7120 C.3     1  UNL1        0.0700
      5 C         144.5497  141.8939  163.0724 C.3     1  UNL1        0.0193
      6 C         144.2070  141.0819  164.2862 C.3     1  UNL1        0.0287
      7 C         144.3285  140.8588  162.4063 C.3     1  UNL1        0.1562
      8 O         144.0186  140.1246  163.5038 O.3     1  UNL1       -0.3571
      9 N         144.8509  142.0755  160.4983 N.3     1  UNL1       -0.2926
     10 H         145.2002  141.4230  159.7965 H       1  UNL1        0.1236
     11 C         143.7963  142.9068  159.8298 C.3     1  UNL1        0.1152
     12 C         142.5837  143.3404  160.5990 C.ar    1  UNL1        0.0780
     13 C         141.3631  142.4691  160.6288 C.ar    1  UNL1        0.0535
     14 C         140.1506  142.9028  161.3980 C.ar    1  UNL1        0.1469
     15 C         140.1586  144.2078  162.1374 C.ar    1  UNL1        0.0785
     16 C         141.3792  145.0791  162.1077 C.ar    1  UNL1        0.1076
     17 N         142.5918  144.6455  161.3385 N.ar    1  UNL1       -0.2460
     18 S         138.9461  144.6415  162.9067 S.3     1  UNL1       -0.1053
     19 C         137.7255  143.7700  162.9363 C.3     1  UNL1        0.1095
     20 C         137.7175  142.4650  162.1969 C.3     1  UNL1        0.2174
     21 O         138.9301  142.0313  161.4277 O.3     1  UNL1       -0.4739
     22 C         143.4797  138.8274  165.3532 C.3     1  UNL1        0.0604
     23 O         143.5662  140.8334  170.0703 O.2     1  UNL1       -0.2670
     24 C         142.1798  140.5080  169.5993 C.ar    1  UNL1        0.2611
     25 C         141.0027  140.7780  170.4890 C.ar    1  UNL1        0.0623
     26 C         139.6163  140.4526  170.0180 C.ar    1  UNL1        0.0254
     27 C         139.4069  139.8572  168.6573 C.ar    1  UNL1        0.0972
     28 N         138.1530  139.4374  167.9349 N.ar    1  UNL1       -0.2400
     29 C         138.0994  138.8486  166.5564 C.ar    1  UNL1        0.1282
     30 C         139.3663  138.6356  165.7821 C.ar    1  UNL1        0.1588
     31 F         139.3128  138.0468  164.4035 F       1  UNL1       -0.2027
     32 C         140.6868  139.0115  166.3863 C.ar    1  UNL1        0.0500
     33 C         140.5839  139.5872  167.7676 C.ar    1  UNL1        0.0806
     34 N         141.9704  139.9126  168.2386 N.ar    1  UNL1       -0.2915
     35 C         142.9301  139.5379  167.1484 C.3     1  UNL1        0.1402
     36 C         142.1368  138.9810  166.0036 C.3     1  UNL1        0.1335
     37 O         141.6243  138.3920  164.7229 O.3     1  UNL1       -0.3806
     38 H         142.3699  138.2086  164.1301 H       1  UNL1        0.2108
@<TRIPOS>BOND
     1    23    24    2
     2    24    25   ar
     3    25    26   ar
     4    26    27   ar
     5    27    28   ar
     6    28    29   ar
     7    29    30   ar
     8    30    31    1
     9    30    32   ar
    10    32    33   ar
    11    33    34   ar
    12    34    35    1
    13    35    36    1
    14    36    37    1
    15    36    22    1
    16    22     1    1
    17     1     2    1
    18     2     3    1
    19     3     4    1
    20     4     9    1
    21     9    11    1
    22    11    12    1
    23    12    13   ar
    24    13    14   ar
    25    14    15   ar
    26    15    16   ar
    27    16    17   ar
    28    15    18    1
    29    18    19    1
    30    19    20    1
    31    20    21    1
    32     4     5    1
    33     5     6    1
    34     4     7    1
    35     7     8    1
    36    34    24   ar
    37     6     1    1
    38    33    27   ar
    39     8     1    1
    40    36    32    1
    41    17    12   ar
    42    21    14    1
    43    37    38    1
    44     9    10    1
@<TRIPOS>MOLECULE
*****
 38 44 0 0 0
SMALL
GASTEIGER

@<TRIPOS>ATOM
      1 C         138.7297  138.9411  164.1988 C.3     1  UNL1        0.0955
      2 C         138.0404  140.2353  163.8823 C.3     1  UNL1        0.0287
      3 C         137.5045  140.4819  162.5031 C.3     1  UNL1        0.0193
      4 C         137.6580  139.4345  161.4405 C.3     1  UNL1        0.0700
      5 C         138.3472  138.1404  161.7570 C.3     1  UNL1        0.0193
      6 C         138.8831  137.8936  163.1361 C.3     1  UNL1        0.0287
      7 C         137.9679  139.2538  162.1817 C.3     1  UNL1        0.1562
      8 O         138.4525  139.0308  163.4287 O.3     1  UNL1       -0.3571
      9 N         137.1221  139.6811  160.0613 N.3     1  UNL1       -0.2926
     10 H         136.2000  140.1021  160.1746 H       1  UNL1        0.1236
     11 C         137.8820  140.5533  159.1065 C.3     1  UNL1        0.1152
     12 C         139.0259  141.3881  159.6011 C.ar    1  UNL1        0.0780
     13 C         140.3825  140.7728  159.7770 C.ar    1  UNL1        0.0535
     14 C         141.5263  141.6077  160.2716 C.ar    1  UNL1        0.1469
     15 C         141.3135  143.0579  160.5904 C.ar    1  UNL1        0.0785
     16 C         139.9569  143.6732  160.4145 C.ar    1  UNL1        0.1076
     17 N         138.8131  142.8383  159.9199 N.ar    1  UNL1       -0.2460
     18 S         142.4573  143.8928  161.0850 S.3     1  UNL1       -0.1053
     19 C         143.8140  143.2773  161.2609 C.3     1  UNL1        0.1095
     20 C         144.0267  141.8272  160.9421 C.3     1  UNL1        0.2174
     21 O         142.8829  140.9923  160.4475 O.3     1  UNL1       -0.4739
     22 C         139.2655  138.6945  165.5779 C.3     1  UNL1        0.0604
     23 O         138.0829  140.0910  170.3668 O.2     1  UNL1       -0.2670
     24 C         139.3247  140.7578  169.8538 C.ar    1  UNL1        0.2611
     25 C         140.0749  141.7195  170.7268 C.ar    1  UNL1        0.0623
     26 C         141.3167  142.3864  170.2137 C.ar    1  UNL1        0.0254
     27 C         141.8083  142.0915  168.8276 C.ar    1  UNL1        0.0972
     28 N         143.0013  142.6036  168.0628 N.ar    1  UNL1       -0.2400
     29 C         143.3700  142.2121  166.6626 C.ar    1  UNL1        0.1282
     30 C         142.5192  141.2331  165.9089 C.ar    1  UNL1        0.1588
     31 F         142.8879  140.8416  164.5087 F       1  UNL1       -0.2027
     32 C         141.2998  140.6458  166.5555 C.ar    1  UNL1        0.0500
     33 C         141.0581  141.1298  167.9546 C.ar    1  UNL1        0.0806
     34 N         139.8163  140.4629  168.4677 N.ar    1  UNL1       -0.2915
     35 C         139.2906  139.5668  167.3857 C.3     1  UNL1        0.1402
     36 C         140.2074  139.6799  166.2039 C.3     1  UNL1        0.1335
     37 O         140.9274  139.5869  164.8913 O.3     1  UNL1       -0.3806
     38 H         140.4590  138.9687  164.3087 H       1  UNL1        0.2108
@<TRIPOS>BOND
     1    23    24    2
     2    24    25   ar
     3    25    26   ar
     4    26    27   ar
     5    27    28   ar
     6    28    29   ar
     7    29    30   ar
     8    30    31    1
     9    30    32   ar
    10    32    33   ar
    11    33    34   ar
    12    34    35    1
    13    35    36    1
    14    36    37    1
    15    36    22    1
    16    22     1    1
    17     1     2    1
    18     2     3    1
    19     3     4    1
    20     4     9    1
    21     9    11    1
    22    11    12    1
    23    12    13   ar
    24    13    14   ar
    25    14    15   ar
    26    15    16   ar
    27    16    17   ar
    28    15    18    1
    29    18    19    1
    30    19    20    1
    31    20    21    1
    32     4     5    1
    33     5     6    1
    34     4     7    1
    35     7     8    1
    36    34    24   ar
    37     6     1    1
    38    33    27   ar
    39     8     1    1
    40    36    32    1
    41    17    12   ar
    42    21    14    1
    43    37    38    1
    44     9    10    1
@<TRIPOS>MOLECULE
*****
 38 44 0 0 0
SMALL
GASTEIGER

@<TRIPOS>ATOM
      1 C         143.6999  141.6781  164.4845 C.3     1  UNL1        0.0955
      2 C         144.2844  140.3449  164.8466 C.3     1  UNL1        0.0287
      3 C         144.6090  139.3512  163.7709 C.3     1  UNL1        0.0193
      4 C         144.3491  139.6906  162.3331 C.3     1  UNL1        0.0700
      5 C         143.7646  141.0237  161.9711 C.3     1  UNL1        0.0193
      6 C         143.4400  142.0176  163.0468 C.3     1  UNL1        0.0287
      7 C         144.1548  140.2676  162.8876 C.3     1  UNL1        0.1562
      8 O         143.8613  141.1661  163.8602 O.3     1  UNL1       -0.3571
      9 N         144.6737  138.6969  161.2574 N.3     1  UNL1       -0.2926
     10 H         145.4950  138.1802  161.5719 H       1  UNL1        0.1236
     11 C         143.6530  137.6781  160.8449 C.3     1  UNL1        0.1152
     12 C         142.1929  137.9530  161.0516 C.ar    1  UNL1        0.0780
     13 C         141.4371  138.7809  160.0550 C.ar    1  UNL1        0.0535
     14 C         139.9770  139.0557  160.2617 C.ar    1  UNL1        0.1469
     15 C         139.2728  138.5026  161.4651 C.ar    1  UNL1        0.0785
     16 C         140.0286  137.6746  162.4617 C.ar    1  UNL1        0.1076
     17 N         141.4887  137.3998  162.2549 N.ar    1  UNL1       -0.2460
     18 S         137.8127  138.7774  161.6718 S.3     1  UNL1       -0.1053
     19 C         137.0570  139.6053  160.6751 C.3     1  UNL1        0.1095
     20 C         137.7612  140.1584  159.4718 C.3     1  UNL1        0.2174
     21 O         139.2213  139.8836  159.2651 O.3     1  UNL1       -0.4739
     22 C         143.3753  142.6719  165.5603 C.3     1  UNL1        0.0604
     23 O         138.9158  140.1716  165.1803 O.2     1  UNL1       -0.2670
     24 C         139.3964  140.2971  166.5957 C.ar    1  UNL1        0.2611
     25 C         138.5858  139.7179  167.7170 C.ar    1  UNL1        0.0623
     26 C         139.0664  139.8433  169.1324 C.ar    1  UNL1        0.0254
     27 C         140.3575  140.5479  169.4264 C.ar    1  UNL1        0.0972
     28 N         141.0722  140.8189  170.7249 N.ar    1  UNL1       -0.2400
     29 C         142.3762  141.5471  170.8643 C.ar    1  UNL1        0.1282
     30 C         143.0754  142.0730  169.6459 C.ar    1  UNL1        0.1588
     31 F         144.3794  142.8011  169.7852 F       1  UNL1       -0.2027
     32 C         142.4706  141.8708  168.2881 C.ar    1  UNL1        0.0500
     33 C         141.1681  141.1271  168.3051 C.ar    1  UNL1        0.0806
     34 N         140.6875  141.0017  166.8897 N.ar    1  UNL1       -0.2915
     35 C         141.6931  141.6678  165.9980 C.3     1  UNL1        0.1402
     36 C         142.7951  142.2050  166.8623 C.3     1  UNL1        0.1335
     37 O         144.0184  142.8397  167.4544 O.3     1  UNL1       -0.3806
     38 H         144.5594  143.2221  166.7459 H       1  UNL1        0.2108
@<TRIPOS>BOND
     1    23    24    2
     2    24    25   ar
     3    25    26   ar
     4    26    27   ar
     5    27    28   ar
     6    28    29   ar
     7    29    30   ar
     8    30    31    1
     9    30    32   ar
    10    32    33   ar
    11    33    34   ar
    12    34    35    1
    13    35    36    1
    14    36    37    1
    15    36    22    1
    16    22     1    1
    17     1     2    1
    18     2     3    1
    19     3     4    1
    20     4     9    1
    21     9    11    1
    22    11    12    1
    23    12    13   ar
    24    13    14   ar
    25    14    15   ar
    26    15    16   ar
    27    16    17   ar
    28    15    18    1
    29    18    19    1
    30    19    20    1
    31    20    21    1
    32     4     5    1
    33     5     6    1
    34     4     7    1
    35     7     8    1
    36    34    24   ar
    37     6     1    1
    38    33    27   ar
    39     8     1    1
    40    36    32    1
    41    17    12   ar
    42    21    14    1
    43    37    38    1
    44     9    10    1
@<TRIPOS>MOLECULE
*****
 38 44 0 0 0
SMALL
GASTEIGER

@<TRIPOS>ATOM
      1 C         137.8763  140.7088  161.8469 C.3     1  UNL1        0.0955
      2 C         137.6889  140.5353  163.3251 C.3     1  UNL1        0.0287
      3 C         137.6444  141.7371  164.2216 C.3     1  UNL1        0.0193
      4 C         137.7873  143.1124  163.6400 C.3     1  UNL1        0.0700
      5 C         137.9747  143.2858  162.1620 C.3     1  UNL1        0.0193
      6 C         138.0192  142.0841  161.2653 C.3     1  UNL1        0.0287
      7 C         137.8181  142.4840  163.1088 C.3     1  UNL1        0.1562
      8 O         137.8584  141.3973  162.2982 O.3     1  UNL1       -0.3571
      9 N         137.7428  144.3142  164.5365 N.3     1  UNL1       -0.2926
     10 H         137.1066  144.0879  165.3010 H       1  UNL1        0.1236
     11 C         139.0047  144.8305  165.1618 C.3     1  UNL1        0.1152
     12 C         140.3366  144.4578  164.5808 C.ar    1  UNL1        0.0780
     13 C         141.0949  143.2875  165.1333 C.ar    1  UNL1        0.0535
     14 C         142.4267  142.9149  164.5524 C.ar    1  UNL1        0.1469
     15 C         143.0001  143.7126  163.4189 C.ar    1  UNL1        0.0785
     16 C         142.2418  144.8829  162.8664 C.ar    1  UNL1        0.1076
     17 N         140.9100  145.2555  163.4474 N.ar    1  UNL1       -0.2460
     18 S         144.3319  143.3400  162.8379 S.3     1  UNL1       -0.1053
     19 C         145.0902  142.1696  163.3905 C.3     1  UNL1        0.1095
     20 C         144.5167  141.3720  164.5240 C.3     1  UNL1        0.2174
     21 O         143.1849  141.7446  165.1049 O.3     1  UNL1       -0.4739
     22 C         137.9208  139.5070  160.9504 C.3     1  UNL1        0.0604
     23 O         141.8730  138.7208  164.1197 O.2     1  UNL1       -0.2670
     24 C         142.2306  138.5140  162.6777 C.ar    1  UNL1        0.2611
     25 C         143.6275  138.1187  162.3006 C.ar    1  UNL1        0.0623
     26 C         143.9851  137.9119  160.8586 C.ar    1  UNL1        0.0254
     27 C         142.9457  138.1005  159.7936 C.ar    1  UNL1        0.0972
     28 N         143.0177  137.9641  158.2948 N.ar    1  UNL1       -0.2400
     29 C         141.8781  138.1880  157.3455 C.ar    1  UNL1        0.1282
     30 C         140.5300  138.5823  157.8718 C.ar    1  UNL1        0.1588
     31 F         139.3904  138.8062  156.9225 F       1  UNL1       -0.2027
     32 C         140.3215  138.7527  159.3475 C.ar    1  UNL1        0.0500
     33 C         141.5488  138.4959  160.1707 C.ar    1  UNL1        0.0806
     34 N         141.1912  138.7026  161.6128 N.ar    1  UNL1       -0.2915
     35 C         139.7429  139.0872  161.6807 C.3     1  UNL1        0.1402
     36 C         139.2054  139.1181  160.2806 C.3     1  UNL1        0.1335
     37 O         138.3993  139.2303  159.0206 O.3     1  UNL1       -0.3806
     38 H         137.4897  139.4857  159.2404 H       1  UNL1        0.2108
@<TRIPOS>BOND
     1    23    24    2
     2    24    25   ar
     3    25    26   ar
     4    26    27   ar
     5    27    28   ar
     6    28    29   ar
     7    29    30   ar
     8    30    31    1
     9    30    32   ar
    10    32    33   ar
    11    33    34   ar
    12    34    35    1
    13    35    36    1
    14    36    37    1
    15    36    22    1
    16    22     1    1
    17     1     2    1
    18     2     3    1
    19     3     4    1
    20     4     9    1
    21     9    11    1
    22    11    12    1
    23    12    13   ar
    24    13    14   ar
    25    14    15   ar
    26    15    16   ar
    27    16    17   ar
    28    15    18    1
    29    18    19    1
    30    19    20    1
    31    20    21    1
    32     4     5    1
    33     5     6    1
    34     4     7    1
    35     7     8    1
    36    34    24   ar
    37     6     1    1
    38    33    27   ar
    39     8     1    1
    40    36    32    1
    41    17    12   ar
    42    21    14    1
    43    37    38    1
    44     9    10    1
