@<TRIPOS>MOLECULE
*****
 27 30 0 0 0
SMALL
GASTEIGER

@<TRIPOS>ATOM
      1 N         143.7333  142.3547  162.9835 N.ar    1  UNL1       -0.2560
      2 C         145.2315  142.3390  162.9117 C.ar    1  UNL1        0.1851
      3 N         145.7187  141.1326  163.6580 N.ar    1  UNL1       -0.2220
      4 C         144.5217  140.4026  164.1911 C.ar    1  UNL1        0.1176
      5 C         144.3904  139.1477  165.0023 C.ar    1  UNL1        0.0251
      6 C         143.0322  138.6482  165.3966 C.ar    1  UNL1        0.0358
      7 C         141.8051  139.4035  164.9797 C.ar    1  UNL1        0.1305
      8 N         141.9363  140.6584  164.1685 N.ar    1  UNL1       -0.2119
      9 C         143.2946  141.1579  163.7742 C.ar    1  UNL1        0.1691
     10 C         139.7993  145.8070  162.2861 C.3     1  UNL1        0.0515
     11 C         141.0238  144.9729  162.0514 C.ar    1  UNL1        0.0550
     12 C         141.6206  143.9918  163.0165 C.ar    1  UNL1        0.0532
     13 C         142.8321  143.3860  162.3719 C.ar    1  UNL1        0.1704
     14 N         142.9839  143.9927  161.0085 N.ar    1  UNL1       -0.1547
     15 N         141.8664  144.9734  160.8103 N.ar    1  UNL1       -0.2784
     16 H         141.7129  145.5212  160.0068 H       1  UNL1        0.1886
     17 N         140.4468  138.9039  165.3740 N.pl3   1  UNL1       -0.3135
     18 H         140.2254  137.9497  165.2749 H       1  UNL1        0.1485
     19 C         139.4258  139.8581  165.9191 C.3     1  UNL1        0.1295
     20 C         138.1957  140.1764  165.1219 C.3     1  UNL1        0.0295
     21 C         139.6349  140.4939  167.2615 C.ar    1  UNL1        0.1570
     22 N         140.3136  141.8278  167.3620 N.ar    1  UNL1       -0.2251
     23 C         140.5227  142.4636  168.7044 C.ar    1  UNL1        0.1314
     24 C         140.0531  141.7656  169.9463 C.ar    1  UNL1        0.1783
     25 F         140.2622  142.4014  171.2886 F       1  UNL1       -0.2009
     26 C         139.3745  140.4316  169.8458 C.ar    1  UNL1        0.1314
     27 N         139.1654  139.7958  168.5034 N.ar    1  UNL1       -0.2251
@<TRIPOS>BOND
     1    10    11    1
     2    11    12   ar
     3    12    13   ar
     4    13     1    1
     5     1     2   ar
     6     2     3   ar
     7     3     4   ar
     8     4     5   ar
     9     5     6   ar
    10     6     7   ar
    11     7    17    1
    12    17    19    1
    13    19    20    1
    14    19    21    1
    15    21    22   ar
    16    22    23   ar
    17    23    24   ar
    18    24    25    1
    19    24    26   ar
    20    26    27   ar
    21     7     8   ar
    22     8     9   ar
    23    13    14   ar
    24    14    15   ar
    25    15    11   ar
    26     9     1   ar
    27     9     4   ar
    28    27    21   ar
    29    17    18    1
    30    15    16    1
@<TRIPOS>MOLECULE
*****
 27 30 0 0 0
SMALL
GASTEIGER

@<TRIPOS>ATOM
      1 N         141.2479  144.1663  162.4673 N.ar    1  UNL1       -0.2560
      2 C         140.7737  145.4470  161.8470 C.ar    1  UNL1        0.1851
      3 N         139.3060  145.5816  162.1261 N.ar    1  UNL1       -0.2220
      4 C         138.8732  144.3841  162.9189 C.ar    1  UNL1        0.1176
      5 C         137.5413  143.9772  163.4761 C.ar    1  UNL1        0.0251
      6 C         137.4096  142.6955  164.2441 C.ar    1  UNL1        0.0358
      7 C         138.6097  141.8208  164.4550 C.ar    1  UNL1        0.1305
      8 N         139.9416  142.2277  163.8978 N.ar    1  UNL1       -0.2119
      9 C         140.0733  143.5094  163.1298 C.ar    1  UNL1        0.1691
     10 C         145.7256  141.7147  163.8169 C.3     1  UNL1        0.0515
     11 C         144.7085  142.5087  163.0517 C.ar    1  UNL1        0.0550
     12 C         143.3128  142.8218  163.5033 C.ar    1  UNL1        0.0532
     13 C         142.6504  143.6356  162.4314 C.ar    1  UNL1        0.1704
     14 N         143.6368  143.8255  161.3175 N.ar    1  UNL1       -0.1547
     15 N         144.9088  143.1291  161.7007 N.ar    1  UNL1       -0.2784
     16 H         145.7308  143.0866  161.1605 H       1  UNL1        0.1886
     17 N         138.4779  140.5390  165.2230 N.pl3   1  UNL1       -0.3135
     18 H         137.6504  140.0096  165.1590 H       1  UNL1        0.1485
     19 C         139.6070  140.0639  166.0887 C.3     1  UNL1        0.1295
     20 C         140.5557  139.0201  165.5781 C.3     1  UNL1        0.0295
     21 C         139.7875  140.6325  167.4650 C.ar    1  UNL1        0.1570
     22 N         139.3301  139.8552  168.6635 N.ar    1  UNL1       -0.2251
     23 C         139.5106  140.4238  170.0398 C.ar    1  UNL1        0.1314
     24 C         140.1485  141.7697  170.2175 C.ar    1  UNL1        0.1783
     25 F         140.3289  142.3383  171.5938 F       1  UNL1       -0.2009
     26 C         140.6059  142.5471  169.0189 C.ar    1  UNL1        0.1314
     27 N         140.4254  141.9785  167.6426 N.ar    1  UNL1       -0.2251
@<TRIPOS>BOND
     1    10    11    1
     2    11    12   ar
     3    12    13   ar
     4    13     1    1
     5     1     2   ar
     6     2     3   ar
     7     3     4   ar
     8     4     5   ar
     9     5     6   ar
    10     6     7   ar
    11     7    17    1
    12    17    19    1
    13    19    20    1
    14    19    21    1
    15    21    22   ar
    16    22    23   ar
    17    23    24   ar
    18    24    25    1
    19    24    26   ar
    20    26    27   ar
    21     7     8   ar
    22     8     9   ar
    23    13    14   ar
    24    14    15   ar
    25    15    11   ar
    26     9     1   ar
    27     9     4   ar
    28    27    21   ar
    29    17    18    1
    30    15    16    1
@<TRIPOS>MOLECULE
*****
 27 30 0 0 0
SMALL
GASTEIGER

@<TRIPOS>ATOM
      1 N         143.7768  142.2362  163.0987 N.ar    1  UNL1       -0.2560
      2 C         145.2696  142.2223  163.2447 C.ar    1  UNL1        0.1851
      3 N         145.6488  140.9900  164.0113 N.ar    1  UNL1       -0.2220
      4 C         144.3903  140.2423  164.3390 C.ar    1  UNL1        0.1176
      5 C         144.1485  138.9597  165.0782 C.ar    1  UNL1        0.0251
      6 C         142.7496  138.4474  165.2533 C.ar    1  UNL1        0.0358
      7 C         141.5927  139.2176  164.6892 C.ar    1  UNL1        0.1305
      8 N         141.8346  140.5002  163.9500 N.ar    1  UNL1       -0.2119
      9 C         143.2334  141.0126  163.7750 C.ar    1  UNL1        0.1691
     10 C         140.1364  145.9236  162.0829 C.3     1  UNL1        0.0515
     11 C         141.2959  144.9839  161.9322 C.ar    1  UNL1        0.0550
     12 C         141.7980  144.0289  162.9743 C.ar    1  UNL1        0.0532
     13 C         142.9692  143.2890  162.3991 C.ar    1  UNL1        0.1704
     14 N         143.1909  143.7867  161.0016 N.ar    1  UNL1       -0.1547
     15 N         142.1568  144.8343  160.7130 N.ar    1  UNL1       -0.2784
     16 H         142.0601  145.3355  159.8712 H       1  UNL1        0.1886
     17 N         140.1938  138.7052  164.8643 N.pl3   1  UNL1       -0.3135
     18 H         139.9540  137.8075  164.5388 H       1  UNL1        0.1485
     19 C         139.1603  139.5605  165.5353 C.3     1  UNL1        0.1295
     20 C         138.6029  139.1567  166.8682 C.3     1  UNL1        0.0295
     21 C         138.6840  140.8195  164.8735 C.ar    1  UNL1        0.1570
     22 N         139.0840  142.1551  165.4267 N.ar    1  UNL1       -0.2251
     23 C         138.6078  143.4142  164.7649 C.ar    1  UNL1        0.1314
     24 C         137.7315  143.3376  163.5499 C.ar    1  UNL1        0.1783
     25 F         137.2553  144.5967  162.8881 F       1  UNL1       -0.2009
     26 C         137.3314  142.0020  162.9967 C.ar    1  UNL1        0.1314
     27 N         137.8077  140.7429  163.6585 N.ar    1  UNL1       -0.2251
@<TRIPOS>BOND
     1    10    11    1
     2    11    12   ar
     3    12    13   ar
     4    13     1    1
     5     1     2   ar
     6     2     3   ar
     7     3     4   ar
     8     4     5   ar
     9     5     6   ar
    10     6     7   ar
    11     7    17    1
    12    17    19    1
    13    19    20    1
    14    19    21    1
    15    21    22   ar
    16    22    23   ar
    17    23    24   ar
    18    24    25    1
    19    24    26   ar
    20    26    27   ar
    21     7     8   ar
    22     8     9   ar
    23    13    14   ar
    24    14    15   ar
    25    15    11   ar
    26     9     1   ar
    27     9     4   ar
    28    27    21   ar
    29    17    18    1
    30    15    16    1
@<TRIPOS>MOLECULE
*****
 27 30 0 0 0
SMALL
GASTEIGER

@<TRIPOS>ATOM
      1 N         143.3420  142.0413  163.0678 N.ar    1  UNL1       -0.2560
      2 C         144.7184  141.5530  162.7260 C.ar    1  UNL1        0.1851
      3 N         145.0071  140.3496  163.5737 N.ar    1  UNL1       -0.2220
      4 C         143.8090  140.0943  164.4394 C.ar    1  UNL1        0.1176
      5 C         143.5222  139.0448  165.4720 C.ar    1  UNL1        0.0251
      6 C         142.2063  139.0409  166.1919 C.ar    1  UNL1        0.0358
      7 C         141.1772  140.0864  165.8792 C.ar    1  UNL1        0.1305
      8 N         141.4640  141.1359  164.8467 N.ar    1  UNL1       -0.2119
      9 C         142.7799  141.1398  164.1267 C.ar    1  UNL1        0.1691
     10 C         139.8542  145.9006  162.1604 C.3     1  UNL1        0.0515
     11 C         141.0460  144.9975  162.0407 C.ar    1  UNL1        0.0550
     12 C         141.3731  143.8449  162.9432 C.ar    1  UNL1        0.0532
     13 C         142.6492  143.2237  162.4578 C.ar    1  UNL1        0.1704
     14 N         143.1107  143.9923  161.2552 N.ar    1  UNL1       -0.1547
     15 N         142.1200  145.0886  160.9974 N.ar    1  UNL1       -0.2784
     16 H         142.1664  145.7515  160.2710 H       1  UNL1        0.1886
     17 N         139.8612  140.0825  166.5992 N.pl3   1  UNL1       -0.3135
     18 H         139.7635  140.5702  167.4488 H       1  UNL1        0.1485
     19 C         138.6943  139.3354  166.0248 C.3     1  UNL1        0.1295
     20 C         137.7834  138.5577  166.9279 C.3     1  UNL1        0.0295
     21 C         138.4381  139.3660  164.5471 C.ar    1  UNL1        0.1570
     22 N         138.7307  138.1563  163.7100 N.ar    1  UNL1       -0.2251
     23 C         138.4745  138.1869  162.2323 C.ar    1  UNL1        0.1314
     24 C         137.9256  139.4272  161.5918 C.ar    1  UNL1        0.1783
     25 F         137.6694  139.4578  160.1142 F       1  UNL1       -0.2009
     26 C         137.6330  140.6371  162.4290 C.ar    1  UNL1        0.1314
     27 N         137.8892  140.6065  163.9066 N.ar    1  UNL1       -0.2251
@<TRIPOS>BOND
     1    10    11    1
     2    11    12   ar
     3    12    13   ar
     4    13     1    1
     5     1     2   ar
     6     2     3   ar
     7     3     4   ar
     8     4     5   ar
     9     5     6   ar
    10     6     7   ar
    11     7    17    1
    12    17    19    1
    13    19    20    1
    14    19    21    1
    15    21    22   ar
    16    22    23   ar
    17    23    24   ar
    18    24    25    1
    19    24    26   ar
    20    26    27   ar
    21     7     8   ar
    22     8     9   ar
    23    13    14   ar
    24    14    15   ar
    25    15    11   ar
    26     9     1   ar
    27     9     4   ar
    28    27    21   ar
    29    17    18    1
    30    15    16    1
@<TRIPOS>MOLECULE
*****
 27 30 0 0 0
SMALL
GASTEIGER

@<TRIPOS>ATOM
      1 N         141.3745  144.0007  162.1196 N.ar    1  UNL1       -0.2560
      2 C         140.8480  145.1308  161.2855 C.ar    1  UNL1        0.1851
      3 N         139.4000  145.3230  161.6264 N.ar    1  UNL1       -0.2220
      4 C         139.0315  144.3118  162.6712 C.ar    1  UNL1        0.1176
      5 C         137.7425  144.0295  163.3844 C.ar    1  UNL1        0.0251
      6 C         137.6738  142.9300  164.4024 C.ar    1  UNL1        0.0358
      7 C         138.8941  142.1128  164.7072 C.ar    1  UNL1        0.1305
      8 N         140.1831  142.3950  163.9940 N.ar    1  UNL1       -0.2119
      9 C         140.2519  143.4945  162.9760 C.ar    1  UNL1        0.1691
     10 C         145.8863  141.6812  163.5839 C.3     1  UNL1        0.0515
     11 C         144.8512  142.4038  162.7737 C.ar    1  UNL1        0.0550
     12 C         143.4645  142.7544  163.2257 C.ar    1  UNL1        0.0532
     13 C         142.7773  143.4699  162.1006 C.ar    1  UNL1        0.1704
     14 N         143.7392  143.5615  160.9533 N.ar    1  UNL1       -0.1547
     15 N         145.0210  142.9026  161.3692 N.ar    1  UNL1       -0.2784
     16 H         145.8314  142.8132  160.8174 H       1  UNL1        0.1886
     17 N         138.8253  141.0132  165.7252 N.pl3   1  UNL1       -0.3135
     18 H         138.9676  141.2152  166.6782 H       1  UNL1        0.1485
     19 C         138.5398  139.6061  165.2912 C.3     1  UNL1        0.1295
     20 C         138.0226  138.6059  166.2823 C.3     1  UNL1        0.0295
     21 C         138.7715  139.1991  163.8662 C.ar    1  UNL1        0.1570
     22 N         137.7456  139.5169  162.8192 N.ar    1  UNL1       -0.2251
     23 C         137.9773  139.1099  161.3942 C.ar    1  UNL1        0.1314
     24 C         139.2349  138.3850  161.0162 C.ar    1  UNL1        0.1783
     25 F         139.4666  137.9780  159.5912 F       1  UNL1       -0.2009
     26 C         140.2609  138.0671  162.0633 C.ar    1  UNL1        0.1314
     27 N         140.0292  138.4742  163.4883 N.ar    1  UNL1       -0.2251
@<TRIPOS>BOND
     1    10    11    1
     2    11    12   ar
     3    12    13   ar
     4    13     1    1
     5     1     2   ar
     6     2     3   ar
     7     3     4   ar
     8     4     5   ar
     9     5     6   ar
    10     6     7   ar
    11     7    17    1
    12    17    19    1
    13    19    20    1
    14    19    21    1
    15    21    22   ar
    16    22    23   ar
    17    23    24   ar
    18    24    25    1
    19    24    26   ar
    20    26    27   ar
    21     7     8   ar
    22     8     9   ar
    23    13    14   ar
    24    14    15   ar
    25    15    11   ar
    26     9     1   ar
    27     9     4   ar
    28    27    21   ar
    29    17    18    1
    30    15    16    1
@<TRIPOS>MOLECULE
*****
 27 30 0 0 0
SMALL
GASTEIGER

@<TRIPOS>ATOM
      1 N         141.3860  144.0382  162.6274 N.ar    1  UNL1       -0.2560
      2 C         140.9804  145.4585  162.3664 C.ar    1  UNL1        0.1851
      3 N         139.4953  145.5581  162.5524 N.ar    1  UNL1       -0.2220
      4 C         138.9831  144.1993  162.9283 C.ar    1  UNL1        0.1176
      5 C         137.6036  143.6960  163.2345 C.ar    1  UNL1        0.0251
      6 C         137.3927  142.2533  163.5869 C.ar    1  UNL1        0.0358
      7 C         138.5613  141.3140  163.6333 C.ar    1  UNL1        0.1305
      8 N         139.9407  141.8173  163.3272 N.ar    1  UNL1       -0.2119
      9 C         140.1517  143.2599  162.9747 C.ar    1  UNL1        0.1691
     10 C         145.8278  141.4346  163.7993 C.3     1  UNL1        0.0515
     11 C         144.8227  142.2953  163.0927 C.ar    1  UNL1        0.0550
     12 C         143.4309  142.5947  163.5652 C.ar    1  UNL1        0.0532
     13 C         142.7811  143.4920  162.5540 C.ar    1  UNL1        0.1704
     14 N         143.7713  143.7472  161.4566 N.ar    1  UNL1       -0.1547
     15 N         145.0332  143.0077  161.7895 N.ar    1  UNL1       -0.2784
     16 H         145.8551  142.9925  161.2477 H       1  UNL1        0.1886
     17 N         138.3503  139.8713  163.9858 N.pl3   1  UNL1       -0.3135
     18 H         137.8002  139.2979  163.4046 H       1  UNL1        0.1485
     19 C         138.9776  139.3022  165.2238 C.3     1  UNL1        0.1295
     20 C         138.1157  138.8934  166.3814 C.3     1  UNL1        0.0295
     21 C         140.4669  139.1419  165.3042 C.ar    1  UNL1        0.1570
     22 N         141.1902  139.4815  166.5736 N.ar    1  UNL1       -0.2251
     23 C         142.6795  139.3212  166.6540 C.ar    1  UNL1        0.1314
     24 C         143.4453  138.8214  165.4651 C.ar    1  UNL1        0.1783
     25 F         144.9346  138.6611  165.5456 F       1  UNL1       -0.2009
     26 C         142.7220  138.4818  164.1957 C.ar    1  UNL1        0.1314
     27 N         141.2327  138.6421  164.1152 N.ar    1  UNL1       -0.2251
@<TRIPOS>BOND
     1    10    11    1
     2    11    12   ar
     3    12    13   ar
     4    13     1    1
     5     1     2   ar
     6     2     3   ar
     7     3     4   ar
     8     4     5   ar
     9     5     6   ar
    10     6     7   ar
    11     7    17    1
    12    17    19    1
    13    19    20    1
    14    19    21    1
    15    21    22   ar
    16    22    23   ar
    17    23    24   ar
    18    24    25    1
    19    24    26   ar
    20    26    27   ar
    21     7     8   ar
    22     8     9   ar
    23    13    14   ar
    24    14    15   ar
    25    15    11   ar
    26     9     1   ar
    27     9     4   ar
    28    27    21   ar
    29    17    18    1
    30    15    16    1
@<TRIPOS>MOLECULE
*****
 27 30 0 0 0
SMALL
GASTEIGER

@<TRIPOS>ATOM
      1 N         138.7478  140.6630  162.2777 N.ar    1  UNL1       -0.2560
      2 C         137.8522  139.7122  161.5403 C.ar    1  UNL1        0.1851
      3 N         138.3724  138.3222  161.7582 N.ar    1  UNL1       -0.2220
      4 C         139.5893  138.4140  162.6303 C.ar    1  UNL1        0.1176
      5 C         140.5162  137.3672  163.1735 C.ar    1  UNL1        0.0251
      6 C         141.6751  137.7672  164.0377 C.ar    1  UNL1        0.0358
      7 C         141.9071  139.2139  164.3589 C.ar    1  UNL1        0.1305
      8 N         140.9802  140.2607  163.8157 N.ar    1  UNL1       -0.2119
      9 C         139.8214  139.8608  162.9514 C.ar    1  UNL1        0.1691
     10 C         139.8110  145.8302  162.0510 C.3     1  UNL1        0.0515
     11 C         139.0851  144.5294  162.2278 C.ar    1  UNL1        0.0550
     12 C         139.6751  143.1606  162.0601 C.ar    1  UNL1        0.0532
     13 C         138.5963  142.1544  162.3320 C.ar    1  UNL1        0.1704
     14 N         137.3397  142.9014  162.6677 N.ar    1  UNL1       -0.1547
     15 N         137.6416  144.3693  162.6033 N.ar    1  UNL1       -0.2784
     16 H         137.0044  145.0994  162.7770 H       1  UNL1        0.1886
     17 N         143.0660  139.6138  165.2232 N.pl3   1  UNL1       -0.3135
     18 H         143.9378  139.1697  165.1140 H       1  UNL1        0.1485
     19 C         142.8966  140.6903  166.2539 C.3     1  UNL1        0.1295
     20 C         143.4865  142.0499  166.0223 C.3     1  UNL1        0.0295
     21 C         142.1374  140.4073  167.5162 C.ar    1  UNL1        0.1570
     22 N         142.8600  139.8980  168.7279 N.ar    1  UNL1       -0.2251
     23 C         142.1008  139.6150  169.9902 C.ar    1  UNL1        0.1314
     24 C         140.6188  139.8413  170.0408 C.ar    1  UNL1        0.1783
     25 F         139.8596  139.5583  171.3031 F       1  UNL1       -0.2009
     26 C         139.8961  140.3506  168.8291 C.ar    1  UNL1        0.1314
     27 N         140.6553  140.6336  167.5667 N.ar    1  UNL1       -0.2251
@<TRIPOS>BOND
     1    10    11    1
     2    11    12   ar
     3    12    13   ar
     4    13     1    1
     5     1     2   ar
     6     2     3   ar
     7     3     4   ar
     8     4     5   ar
     9     5     6   ar
    10     6     7   ar
    11     7    17    1
    12    17    19    1
    13    19    20    1
    14    19    21    1
    15    21    22   ar
    16    22    23   ar
    17    23    24   ar
    18    24    25    1
    19    24    26   ar
    20    26    27   ar
    21     7     8   ar
    22     8     9   ar
    23    13    14   ar
    24    14    15   ar
    25    15    11   ar
    26     9     1   ar
    27     9     4   ar
    28    27    21   ar
    29    17    18    1
    30    15    16    1
@<TRIPOS>MOLECULE
*****
 27 30 0 0 0
SMALL
GASTEIGER

@<TRIPOS>ATOM
      1 N         139.4144  142.5361  162.5406 N.ar    1  UNL1       -0.2560
      2 C         138.2019  142.6500  161.6649 C.ar    1  UNL1        0.1851
      3 N         137.5574  141.2978  161.5874 N.ar    1  UNL1       -0.2220
      4 C         138.3716  140.3481  162.4152 C.ar    1  UNL1        0.1176
      5 C         138.2162  138.8854  162.7087 C.ar    1  UNL1        0.0251
      6 C         139.2085  138.1880  163.5913 C.ar    1  UNL1        0.0358
      7 C         140.3562  138.9533  164.1804 C.ar    1  UNL1        0.1305
      8 N         140.5116  140.4161  163.8869 N.ar    1  UNL1       -0.2119
      9 C         139.5193  141.1134  163.0043 C.ar    1  UNL1        0.1691
     10 C         143.7540  145.1747  163.9851 C.3     1  UNL1        0.0515
     11 C         142.3513  144.8622  163.5550 C.ar    1  UNL1        0.0550
     12 C         141.7918  143.4943  163.2987 C.ar    1  UNL1        0.0532
     13 C         140.3566  143.6494  162.8910 C.ar    1  UNL1        0.1704
     14 N         140.0292  145.1131  162.8953 N.ar    1  UNL1       -0.1547
     15 N         141.2619  145.8628  163.3057 N.ar    1  UNL1       -0.2784
     16 H         141.3420  146.8399  163.3956 H       1  UNL1        0.1886
     17 N         141.3485  138.2558  165.0630 N.pl3   1  UNL1       -0.3135
     18 H         141.3811  137.2721  165.0856 H       1  UNL1        0.1485
     19 C         142.2911  139.0571  165.9111 C.3     1  UNL1        0.1295
     20 C         143.6177  139.4862  165.3578 C.3     1  UNL1        0.0295
     21 C         141.9072  139.4295  167.3125 C.ar    1  UNL1        0.1570
     22 N         140.5632  140.0369  167.5857 N.ar    1  UNL1       -0.2251
     23 C         140.1792  140.4092  168.9871 C.ar    1  UNL1        0.1314
     24 C         141.1393  140.1741  170.1153 C.ar    1  UNL1        0.1783
     25 F         140.7554  140.5464  171.5168 F       1  UNL1       -0.2009
     26 C         142.4834  139.5666  169.8422 C.ar    1  UNL1        0.1314
     27 N         142.8673  139.1943  168.4408 N.ar    1  UNL1       -0.2251
@<TRIPOS>BOND
     1    10    11    1
     2    11    12   ar
     3    12    13   ar
     4    13     1    1
     5     1     2   ar
     6     2     3   ar
     7     3     4   ar
     8     4     5   ar
     9     5     6   ar
    10     6     7   ar
    11     7    17    1
    12    17    19    1
    13    19    20    1
    14    19    21    1
    15    21    22   ar
    16    22    23   ar
    17    23    24   ar
    18    24    25    1
    19    24    26   ar
    20    26    27   ar
    21     7     8   ar
    22     8     9   ar
    23    13    14   ar
    24    14    15   ar
    25    15    11   ar
    26     9     1   ar
    27     9     4   ar
    28    27    21   ar
    29    17    18    1
    30    15    16    1
@<TRIPOS>MOLECULE
*****
 27 30 0 0 0
SMALL
GASTEIGER

@<TRIPOS>ATOM
      1 N         142.2045  143.6384  163.1997 N.ar    1  UNL1       -0.2560
      2 C         143.0128  144.7127  162.5345 C.ar    1  UNL1        0.1851
      3 N         144.4349  144.2419  162.4573 N.ar    1  UNL1       -0.2220
      4 C         144.5055  142.8767  163.0748 C.ar    1  UNL1        0.1176
      5 C         145.6469  141.9251  163.2785 C.ar    1  UNL1        0.0251
      6 C         145.4098  140.6005  163.9411 C.ar    1  UNL1        0.0358
      7 C         144.0313  140.2275  164.3999 C.ar    1  UNL1        0.1305
      8 N         142.8899  141.1791  164.1962 N.ar    1  UNL1       -0.2119
      9 C         143.1270  142.5037  163.5336 C.ar    1  UNL1        0.1691
     10 C         137.5613  144.7098  165.4744 C.3     1  UNL1        0.0515
     11 C         138.5979  144.1822  164.5271 C.ar    1  UNL1        0.0550
     12 C         140.0795  144.3888  164.6371 C.ar    1  UNL1        0.0532
     13 C         140.7321  143.6898  163.4815 C.ar    1  UNL1        0.1704
     14 N         139.6538  143.0511  162.6573 N.ar    1  UNL1       -0.1547
     15 N         138.3347  143.3554  163.3034 N.ar    1  UNL1       -0.2784
     16 H         137.4514  143.0637  162.9810 H       1  UNL1        0.1886
     17 N         143.7942  138.9028  165.0626 N.pl3   1  UNL1       -0.3135
     18 H         144.5293  138.2524  165.1398 H       1  UNL1        0.1485
     19 C         142.4372  138.5689  165.6075 C.3     1  UNL1        0.1295
     20 C         141.5248  137.6573  164.8416 C.3     1  UNL1        0.0295
     21 C         141.9924  139.1467  166.9184 C.ar    1  UNL1        0.1570
     22 N         140.6282  139.7572  167.0446 N.ar    1  UNL1       -0.2251
     23 C         140.1834  140.3350  168.3555 C.ar    1  UNL1        0.1314
     24 C         141.1030  140.3023  169.5401 C.ar    1  UNL1        0.1783
     25 F         140.6582  140.8800  170.8510 F       1  UNL1       -0.2009
     26 C         142.4673  139.6917  169.4139 C.ar    1  UNL1        0.1314
     27 N         142.9121  139.1139  168.1030 N.ar    1  UNL1       -0.2251
@<TRIPOS>BOND
     1    10    11    1
     2    11    12   ar
     3    12    13   ar
     4    13     1    1
     5     1     2   ar
     6     2     3   ar
     7     3     4   ar
     8     4     5   ar
     9     5     6   ar
    10     6     7   ar
    11     7    17    1
    12    17    19    1
    13    19    20    1
    14    19    21    1
    15    21    22   ar
    16    22    23   ar
    17    23    24   ar
    18    24    25    1
    19    24    26   ar
    20    26    27   ar
    21     7     8   ar
    22     8     9   ar
    23    13    14   ar
    24    14    15   ar
    25    15    11   ar
    26     9     1   ar
    27     9     4   ar
    28    27    21   ar
    29    17    18    1
    30    15    16    1
