@<TRIPOS>MOLECULE
*****
 30 33 0 0 0
SMALL
GASTEIGER

@<TRIPOS>ATOM
      1 C         142.8484  139.3035  167.4886 C.ar    1  UNL1        0.1289
      2 N         142.8517  138.8183  168.9080 N.ar    1  UNL1       -0.2292
      3 C         142.0885  139.5686  169.9589 C.ar    1  UNL1        0.1053
      4 C         141.3220  140.8043  169.5905 C.ar    1  UNL1        0.0783
      5 C         141.3187  141.2895  168.1711 C.ar    1  UNL1        0.0380
      6 S         140.6602  142.4663  167.5143 S.2     1  UNL1       -0.0866
      7 C         141.0164  142.4432  166.0574 C.ar    1  UNL1        0.0296
      8 C         141.8951  141.2521  165.8138 C.ar    1  UNL1        0.0097
      9 C         142.0819  140.5391  167.1202 C.ar    1  UNL1        0.0380
     10 C         140.5720  143.4367  165.0252 C.ar    1  UNL1        0.0060
     11 C         141.5891  144.1564  164.1901 C.ar    1  UNL1        0.0005
     12 C         141.1446  145.1499  163.1579 C.ar    1  UNL1        0.0000
     13 C         139.6831  145.4238  162.9608 C.ar    1  UNL1        0.0000
     14 C         138.6659  144.7041  163.7960 C.ar    1  UNL1        0.0000
     15 C         139.1104  143.7106  164.8282 C.ar    1  UNL1        0.0005
     16 C         140.5588  141.5546  170.6415 C.2     1  UNL1        0.2448
     17 N         139.0627  141.6342  170.5686 N.am    1  UNL1       -0.3253
     18 O         141.2918  142.2253  171.7652 O.2     1  UNL1       -0.2703
     19 H         138.5816  141.1940  169.8311 H       1  UNL1        0.1453
     20 H         138.5618  142.1267  171.2584 H       1  UNL1        0.1453
     21 N         143.6116  138.5531  166.4377 N.pl3   1  UNL1       -0.3184
     22 H         144.5133  138.2104  166.6346 H       1  UNL1        0.1482
     23 C         144.9243  139.6826  163.9880 C.3     1  UNL1        0.0188
     24 C         143.6574  138.8895  163.8620 C.3     1  UNL1        0.0722
     25 N         143.0468  138.6611  162.5110 N.3     1  UNL1       -0.2972
     26 C         141.7798  137.8680  162.3850 C.3     1  UNL1        0.0686
     27 C         141.1235  137.3033  163.6098 C.3     1  UNL1        0.0188
     28 C         141.7341  137.5316  164.9608 C.3     1  UNL1        0.0223
     29 C         143.0010  138.3247  165.0868 C.3     1  UNL1        0.0847
     30 H         143.7501  138.1842  161.9468 H       1  UNL1        0.1233
@<TRIPOS>BOND
     1    24    23    1
     2    24    25    1
     3    25    26    1
     4    26    27    1
     5    27    28    1
     6    28    29    1
     7    29    21    1
     8    21     1    1
     9     1     2   ar
    10     2     3   ar
    11     3     4   ar
    12     4    16    1
    13    16    17   am
    14    16    18    2
    15     4     5   ar
    16     5     6   ar
    17     6     7   ar
    18     7    10    1
    19    10    11   ar
    20    11    12   ar
    21    12    13   ar
    22    13    14   ar
    23    14    15   ar
    24     7     8   ar
    25     8     9   ar
    26    29    24    1
    27     9     1   ar
    28     9     5   ar
    29    15    10   ar
    30    25    30    1
    31    21    22    1
    32    17    19    1
    33    17    20    1
@<TRIPOS>MOLECULE
*****
 30 33 0 0 0
SMALL
GASTEIGER

@<TRIPOS>ATOM
      1 C         138.6495  139.5764  167.0323 C.ar    1  UNL1        0.1289
      2 N         138.1888  139.1851  168.4050 N.ar    1  UNL1       -0.2292
      3 C         138.7179  139.9078  169.6081 C.ar    1  UNL1        0.1053
      4 C         139.7079  141.0219  169.4386 C.ar    1  UNL1        0.0783
      5 C         140.1686  141.4133  168.0658 C.ar    1  UNL1        0.0380
      6 S         141.1287  142.4633  167.5908 S.2     1  UNL1       -0.0866
      7 C         141.1929  142.3895  166.0940 C.ar    1  UNL1        0.0296
      8 C         140.2725  141.2939  165.6440 C.ar    1  UNL1        0.0097
      9 C         139.6394  140.6905  166.8627 C.ar    1  UNL1        0.0380
     10 C         142.0305  143.2587  165.2035 C.ar    1  UNL1        0.0060
     11 C         143.5198  143.0832  165.1696 C.ar    1  UNL1        0.0005
     12 C         144.3573  143.9524  164.2790 C.ar    1  UNL1        0.0000
     13 C         143.7055  144.9971  163.4224 C.ar    1  UNL1        0.0000
     14 C         142.2162  145.1726  163.4563 C.ar    1  UNL1        0.0000
     15 C         141.3787  144.3034  164.3468 C.ar    1  UNL1        0.0005
     16 C         140.2370  141.7447  170.6419 C.2     1  UNL1        0.2448
     17 N         139.6032  143.0305  171.0832 N.am    1  UNL1       -0.3253
     18 O         141.3999  141.1814  171.4037 O.2     1  UNL1       -0.2703
     19 H         138.8400  143.4002  170.5831 H       1  UNL1        0.1453
     20 H         139.9505  143.5048  171.8729 H       1  UNL1        0.1453
     21 N         138.1203  138.8537  165.8291 N.pl3   1  UNL1       -0.3184
     22 H         137.1613  138.6407  165.7651 H       1  UNL1        0.1482
     23 C         137.8013  140.0474  163.0953 C.3     1  UNL1        0.0188
     24 C         138.8928  139.0523  163.3565 C.3     1  UNL1        0.0722
     25 N         139.8249  138.6540  162.2508 N.3     1  UNL1       -0.2972
     26 C         140.9165  137.6588  162.5119 C.3     1  UNL1        0.0686
     27 C         141.0760  137.0620  163.8787 C.3     1  UNL1        0.0188
     28 C         140.1440  137.4602  164.9845 C.3     1  UNL1        0.0223
     29 C         139.0524  138.4554  164.7234 C.3     1  UNL1        0.0847
     30 H         140.2770  139.5082  161.9248 H       1  UNL1        0.1233
@<TRIPOS>BOND
     1    24    23    1
     2    24    25    1
     3    25    26    1
     4    26    27    1
     5    27    28    1
     6    28    29    1
     7    29    21    1
     8    21     1    1
     9     1     2   ar
    10     2     3   ar
    11     3     4   ar
    12     4    16    1
    13    16    17   am
    14    16    18    2
    15     4     5   ar
    16     5     6   ar
    17     6     7   ar
    18     7    10    1
    19    10    11   ar
    20    11    12   ar
    21    12    13   ar
    22    13    14   ar
    23    14    15   ar
    24     7     8   ar
    25     8     9   ar
    26    29    24    1
    27     9     1   ar
    28     9     5   ar
    29    15    10   ar
    30    25    30    1
    31    21    22    1
    32    17    19    1
    33    17    20    1
@<TRIPOS>MOLECULE
*****
 30 33 0 0 0
SMALL
GASTEIGER

@<TRIPOS>ATOM
      1 C         138.9944  139.7526  167.7785 C.ar    1  UNL1        0.1289
      2 N         138.5682  139.6625  169.2139 N.ar    1  UNL1       -0.2292
      3 C         139.5201  140.0542  170.3048 C.ar    1  UNL1        0.1053
      4 C         140.8983  140.5360  169.9606 C.ar    1  UNL1        0.0783
      5 C         141.3245  140.6261  168.5253 C.ar    1  UNL1        0.0380
      6 S         142.6095  141.0612  167.8853 S.2     1  UNL1       -0.0866
      7 C         142.4516  140.9383  166.3987 C.ar    1  UNL1        0.0296
      8 C         141.0692  140.4274  166.1199 C.ar    1  UNL1        0.0097
      9 C         140.3726  140.2344  167.4342 C.ar    1  UNL1        0.0380
     10 C         143.4934  141.2685  165.3712 C.ar    1  UNL1        0.0060
     11 C         144.2002  140.1667  164.6389 C.ar    1  UNL1        0.0005
     12 C         145.2420  140.4970  163.6113 C.ar    1  UNL1        0.0000
     13 C         145.5769  141.9290  163.3162 C.ar    1  UNL1        0.0000
     14 C         144.8701  143.0308  164.0485 C.ar    1  UNL1        0.0000
     15 C         143.8283  142.7005  165.0760 C.ar    1  UNL1        0.0005
     16 C         141.8502  140.9278  171.0517 C.2     1  UNL1        0.2448
     17 N         143.0159  140.0439  171.3832 N.am    1  UNL1       -0.3253
     18 O         141.6363  142.2034  171.8113 O.2     1  UNL1       -0.2703
     19 H         143.1562  139.2066  170.8846 H       1  UNL1        0.1453
     20 H         143.6406  140.3010  172.0993 H       1  UNL1        0.1453
     21 N         138.0425  139.3608  166.6875 N.pl3   1  UNL1       -0.3184
     22 H         137.0746  139.3317  166.8656 H       1  UNL1        0.1482
     23 C         137.8432  141.3517  164.4520 C.3     1  UNL1        0.0188
     24 C         138.4654  140.0089  164.2074 C.3     1  UNL1        0.0722
     25 N         138.9880  139.6616  162.8449 N.3     1  UNL1       -0.2972
     26 C         139.6103  138.3187  162.6002 C.3     1  UNL1        0.0686
     27 C         139.7099  137.3234  163.7179 C.3     1  UNL1        0.0188
     28 C         139.1873  137.6708  165.0804 C.3     1  UNL1        0.0223
     29 C         138.5651  139.0135  165.3251 C.3     1  UNL1        0.0847
     30 H         139.6945  140.3600  162.6137 H       1  UNL1        0.1233
@<TRIPOS>BOND
     1    24    23    1
     2    24    25    1
     3    25    26    1
     4    26    27    1
     5    27    28    1
     6    28    29    1
     7    29    21    1
     8    21     1    1
     9     1     2   ar
    10     2     3   ar
    11     3     4   ar
    12     4    16    1
    13    16    17   am
    14    16    18    2
    15     4     5   ar
    16     5     6   ar
    17     6     7   ar
    18     7    10    1
    19    10    11   ar
    20    11    12   ar
    21    12    13   ar
    22    13    14   ar
    23    14    15   ar
    24     7     8   ar
    25     8     9   ar
    26    29    24    1
    27     9     1   ar
    28     9     5   ar
    29    15    10   ar
    30    25    30    1
    31    21    22    1
    32    17    19    1
    33    17    20    1
@<TRIPOS>MOLECULE
*****
 30 33 0 0 0
SMALL
GASTEIGER

@<TRIPOS>ATOM
      1 C         142.5614  139.3973  167.4984 C.ar    1  UNL1        0.1289
      2 N         143.0579  139.2491  168.9060 N.ar    1  UNL1       -0.2292
      3 C         142.7189  140.2873  169.9341 C.ar    1  UNL1        0.1053
      4 C         141.8833  141.4738  169.5546 C.ar    1  UNL1        0.0783
      5 C         141.3867  141.6220  168.1470 C.ar    1  UNL1        0.0380
      6 S         140.5504  142.6758  167.4834 S.2     1  UNL1       -0.0866
      7 C         140.3727  142.2887  166.0452 C.ar    1  UNL1        0.0296
      8 C         141.0990  140.9958  165.8199 C.ar    1  UNL1        0.0097
      9 C         141.7258  140.5837  167.1189 C.ar    1  UNL1        0.0380
     10 C         139.6035  143.0593  165.0134 C.ar    1  UNL1        0.0060
     11 C         138.2221  142.6217  164.6260 C.ar    1  UNL1        0.0005
     12 C         137.4530  143.3923  163.5941 C.ar    1  UNL1        0.0000
     13 C         138.0653  144.6005  162.9497 C.ar    1  UNL1        0.0000
     14 C         139.4468  145.0381  163.3370 C.ar    1  UNL1        0.0000
     15 C         140.2159  144.2674  164.3689 C.ar    1  UNL1        0.0005
     16 C         141.5442  142.5121  170.5828 C.2     1  UNL1        0.2448
     17 N         140.3597  142.3181  171.4823 N.am    1  UNL1       -0.3253
     18 O         142.3899  143.7443  170.7115 O.2     1  UNL1       -0.2703
     19 H         139.8046  141.5094  171.3978 H       1  UNL1        0.1453
     20 H         140.1372  142.9995  172.1571 H       1  UNL1        0.1453
     21 N         142.9004  138.3590  166.4703 N.pl3   1  UNL1       -0.3184
     22 H         142.8679  137.4037  166.7061 H       1  UNL1        0.1482
     23 C         141.3067  137.4037  164.1149 C.3     1  UNL1        0.0188
     24 C         142.4922  138.2985  163.9052 C.3     1  UNL1        0.0722
     25 N         142.8808  138.7157  162.5178 N.3     1  UNL1       -0.2972
     26 C         144.0663  139.6106  162.3081 C.3     1  UNL1        0.0686
     27 C         144.8631  140.0882  163.4857 C.3     1  UNL1        0.0188
     28 C         144.4745  139.6710  164.8732 C.3     1  UNL1        0.0223
     29 C         143.2890  138.7762  165.0829 C.3     1  UNL1        0.0847
     30 H         142.0747  139.1963  162.1182 H       1  UNL1        0.1233
@<TRIPOS>BOND
     1    24    23    1
     2    24    25    1
     3    25    26    1
     4    26    27    1
     5    27    28    1
     6    28    29    1
     7    29    21    1
     8    21     1    1
     9     1     2   ar
    10     2     3   ar
    11     3     4   ar
    12     4    16    1
    13    16    17   am
    14    16    18    2
    15     4     5   ar
    16     5     6   ar
    17     6     7   ar
    18     7    10    1
    19    10    11   ar
    20    11    12   ar
    21    12    13   ar
    22    13    14   ar
    23    14    15   ar
    24     7     8   ar
    25     8     9   ar
    26    29    24    1
    27     9     1   ar
    28     9     5   ar
    29    15    10   ar
    30    25    30    1
    31    21    22    1
    32    17    19    1
    33    17    20    1
@<TRIPOS>MOLECULE
*****
 30 33 0 0 0
SMALL
GASTEIGER

@<TRIPOS>ATOM
      1 C         143.3122  142.5998  167.0316 C.ar    1  UNL1        0.1289
      2 N         143.8220  142.5666  168.4420 N.ar    1  UNL1       -0.2292
      3 C         143.3148  141.5285  169.3985 C.ar    1  UNL1        0.1053
      4 C         142.2978  140.5234  168.9447 C.ar    1  UNL1        0.0783
      5 C         141.7881  140.5567  167.5344 C.ar    1  UNL1        0.0380
      6 S         140.7930  139.7023  166.8065 S.2     1  UNL1       -0.0866
      7 C         140.6852  140.2125  165.4000 C.ar    1  UNL1        0.0296
      8 C         141.6137  141.3821  165.2587 C.ar    1  UNL1        0.0097
      9 C         142.2953  141.5949  166.5779 C.ar    1  UNL1        0.0380
     10 C         139.8038  139.6515  164.3238 C.ar    1  UNL1        0.0060
     11 C         138.9441  140.5680  163.5048 C.ar    1  UNL1        0.0005
     12 C         138.0627  140.0069  162.4285 C.ar    1  UNL1        0.0000
     13 C         138.0409  138.5293  162.1713 C.ar    1  UNL1        0.0000
     14 C         138.9005  137.6127  162.9903 C.ar    1  UNL1        0.0000
     15 C         139.7820  138.1738  164.0665 C.ar    1  UNL1        0.0005
     16 C         141.7907  139.4853  169.9014 C.2     1  UNL1        0.2448
     17 N         142.7008  138.3890  170.3702 N.am    1  UNL1       -0.3253
     18 O         140.3734  139.5435  170.3891 O.2     1  UNL1       -0.2703
     19 H         143.6310  138.3509  170.0500 H       1  UNL1        0.1453
     20 H         142.3680  137.7077  170.9980 H       1  UNL1        0.1453
     21 N         143.8194  143.6380  166.0751 N.pl3   1  UNL1       -0.3184
     22 H         143.8884  144.5779  166.3598 H       1  UNL1        0.1482
     23 C         142.6978  145.1119  163.7150 C.3     1  UNL1        0.0188
     24 C         143.6606  143.9811  163.5047 C.3     1  UNL1        0.0722
     25 N         144.0627  143.5873  162.1143 N.3     1  UNL1       -0.2972
     26 C         145.0256  142.4564  161.9039 C.3     1  UNL1        0.0686
     27 C         145.5864  141.7195  163.0839 C.3     1  UNL1        0.0188
     28 C         145.1843  142.1134  164.4744 C.3     1  UNL1        0.0223
     29 C         144.2215  143.2441  164.6847 C.3     1  UNL1        0.0847
     30 H         144.4791  144.4126  161.6833 H       1  UNL1        0.1233
@<TRIPOS>BOND
     1    24    23    1
     2    24    25    1
     3    25    26    1
     4    26    27    1
     5    27    28    1
     6    28    29    1
     7    29    21    1
     8    21     1    1
     9     1     2   ar
    10     2     3   ar
    11     3     4   ar
    12     4    16    1
    13    16    17   am
    14    16    18    2
    15     4     5   ar
    16     5     6   ar
    17     6     7   ar
    18     7    10    1
    19    10    11   ar
    20    11    12   ar
    21    12    13   ar
    22    13    14   ar
    23    14    15   ar
    24     7     8   ar
    25     8     9   ar
    26    29    24    1
    27     9     1   ar
    28     9     5   ar
    29    15    10   ar
    30    25    30    1
    31    21    22    1
    32    17    19    1
    33    17    20    1
@<TRIPOS>MOLECULE
*****
 30 33 0 0 0
SMALL
GASTEIGER

@<TRIPOS>ATOM
      1 C         138.8332  142.5716  163.8506 C.ar    1  UNL1        0.1289
      2 N         137.9769  141.5620  163.1453 N.ar    1  UNL1       -0.2292
      3 C         137.7729  140.2022  163.7445 C.ar    1  UNL1        0.1053
      4 C         138.4252  139.8519  165.0491 C.ar    1  UNL1        0.0783
      5 C         139.2815  140.8615  165.7543 C.ar    1  UNL1        0.0380
      6 S         140.0468  140.8032  167.0431 S.2     1  UNL1       -0.0866
      7 C         140.7238  142.1271  167.2404 C.ar    1  UNL1        0.0296
      8 C         140.3769  143.0036  166.0735 C.ar    1  UNL1        0.0097
      9 C         139.4855  142.2213  165.1551 C.ar    1  UNL1        0.0380
     10 C         141.5948  142.5078  168.4007 C.ar    1  UNL1        0.0060
     11 C         143.0221  142.0490  168.4494 C.ar    1  UNL1        0.0005
     12 C         143.8930  142.4298  169.6098 C.ar    1  UNL1        0.0000
     13 C         143.3367  143.2692  170.7216 C.ar    1  UNL1        0.0000
     14 C         141.9094  143.7279  170.6729 C.ar    1  UNL1        0.0000
     15 C         141.0385  143.3472  169.5124 C.ar    1  UNL1        0.0005
     16 C         138.2211  138.4919  165.6483 C.2     1  UNL1        0.2448
     17 N         138.9222  137.3018  165.0635 N.am    1  UNL1       -0.3253
     18 O         137.3159  138.3223  166.8323 O.2     1  UNL1       -0.2703
     19 H         139.5163  137.4132  164.2864 H       1  UNL1        0.1453
     20 H         138.7882  136.4093  165.4567 H       1  UNL1        0.1453
     21 N         139.0373  143.9315  163.2513 N.pl3   1  UNL1       -0.3184
     22 H         138.5874  144.7147  163.6432 H       1  UNL1        0.1482
     23 C         141.6656  145.3523  163.5226 C.3     1  UNL1        0.0188
     24 C         141.2408  144.8086  162.1907 C.3     1  UNL1        0.0722
     25 N         142.1302  144.9752  160.9944 N.3     1  UNL1       -0.2972
     26 C         141.7055  144.4315  159.6624 C.3     1  UNL1        0.0686
     27 C         140.3914  143.7212  159.5268 C.3     1  UNL1        0.0188
     28 C         139.5019  143.5545  160.7231 C.3     1  UNL1        0.0223
     29 C         139.9267  144.0982  162.0550 C.3     1  UNL1        0.0847
     30 H         143.0190  144.5306  161.2240 H       1  UNL1        0.1233
@<TRIPOS>BOND
     1    24    23    1
     2    24    25    1
     3    25    26    1
     4    26    27    1
     5    27    28    1
     6    28    29    1
     7    29    21    1
     8    21     1    1
     9     1     2   ar
    10     2     3   ar
    11     3     4   ar
    12     4    16    1
    13    16    17   am
    14    16    18    2
    15     4     5   ar
    16     5     6   ar
    17     6     7   ar
    18     7    10    1
    19    10    11   ar
    20    11    12   ar
    21    12    13   ar
    22    13    14   ar
    23    14    15   ar
    24     7     8   ar
    25     8     9   ar
    26    29    24    1
    27     9     1   ar
    28     9     5   ar
    29    15    10   ar
    30    25    30    1
    31    21    22    1
    32    17    19    1
    33    17    20    1
@<TRIPOS>MOLECULE
*****
 30 33 0 0 0
SMALL
GASTEIGER

@<TRIPOS>ATOM
      1 C         138.7774  141.0412  161.8653 C.ar    1  UNL1        0.1289
      2 N         138.5367  141.7075  160.5431 N.ar    1  UNL1       -0.2292
      3 C         139.0150  143.1101  160.3120 C.ar    1  UNL1        0.1053
      4 C         139.7342  143.8467  161.4031 C.ar    1  UNL1        0.0783
      5 C         139.9749  143.1804  162.7252 C.ar    1  UNL1        0.0380
      6 S         140.6498  143.6525  163.9789 S.2     1  UNL1       -0.0866
      7 C         140.5885  142.5415  164.9848 C.ar    1  UNL1        0.0296
      8 C         139.8758  141.3828  164.3528 C.ar    1  UNL1        0.0097
      9 C         139.4965  141.7777  162.9563 C.ar    1  UNL1        0.0380
     10 C         141.1427  142.5820  166.3781 C.ar    1  UNL1        0.0060
     11 C         140.2554  142.9579  167.5275 C.ar    1  UNL1        0.0005
     12 C         140.8097  142.9984  168.9208 C.ar    1  UNL1        0.0000
     13 C         142.2512  142.6631  169.1646 C.ar    1  UNL1        0.0000
     14 C         143.1386  142.2872  168.0152 C.ar    1  UNL1        0.0000
     15 C         142.5843  142.2467  166.6219 C.ar    1  UNL1        0.0005
     16 C         140.2125  145.2495  161.1719 C.2     1  UNL1        0.2448
     17 N         141.6281  145.4980  160.7426 N.am    1  UNL1       -0.3253
     18 O         139.2752  146.4037  161.3700 O.2     1  UNL1       -0.2703
     19 H         142.2433  144.7404  160.6126 H       1  UNL1        0.1453
     20 H         141.9421  146.4187  160.5909 H       1  UNL1        0.1453
     21 N         138.2990  139.6384  162.0964 N.pl3   1  UNL1       -0.3184
     22 H         137.4011  139.3687  161.7958 H       1  UNL1        0.1482
     23 C         140.6217  138.4338  160.6287 C.3     1  UNL1        0.0188
     24 C         140.3500  138.0443  162.0515 C.3     1  UNL1        0.0722
     25 N         141.2396  137.0524  162.7405 N.3     1  UNL1       -0.2972
     26 C         140.9679  136.6628  164.1634 C.3     1  UNL1        0.0686
     27 C         139.8066  137.2650  164.8972 C.3     1  UNL1        0.0188
     28 C         138.9169  138.2570  164.2082 C.3     1  UNL1        0.0223
     29 C         139.1886  138.6465  162.7854 C.3     1  UNL1        0.0847
     30 H         142.1840  137.4369  162.7157 H       1  UNL1        0.1233
@<TRIPOS>BOND
     1    24    23    1
     2    24    25    1
     3    25    26    1
     4    26    27    1
     5    27    28    1
     6    28    29    1
     7    29    21    1
     8    21     1    1
     9     1     2   ar
    10     2     3   ar
    11     3     4   ar
    12     4    16    1
    13    16    17   am
    14    16    18    2
    15     4     5   ar
    16     5     6   ar
    17     6     7   ar
    18     7    10    1
    19    10    11   ar
    20    11    12   ar
    21    12    13   ar
    22    13    14   ar
    23    14    15   ar
    24     7     8   ar
    25     8     9   ar
    26    29    24    1
    27     9     1   ar
    28     9     5   ar
    29    15    10   ar
    30    25    30    1
    31    21    22    1
    32    17    19    1
    33    17    20    1
@<TRIPOS>MOLECULE
*****
 30 33 0 0 0
SMALL
GASTEIGER

@<TRIPOS>ATOM
      1 C         143.4494  140.0955  163.4414 C.ar    1  UNL1        0.1289
      2 N         144.2855  141.0160  162.6027 N.ar    1  UNL1       -0.2292
      3 C         144.6383  142.3819  163.1122 C.ar    1  UNL1        0.1053
      4 C         144.1550  142.8274  164.4606 C.ar    1  UNL1        0.0783
      5 C         143.3189  141.9069  165.2993 C.ar    1  UNL1        0.0380
      6 S         142.7034  142.0682  166.6577 S.2     1  UNL1       -0.0866
      7 C         141.9702  140.8019  166.9876 C.ar    1  UNL1        0.0296
      8 C         142.1325  139.8580  165.8332 C.ar    1  UNL1        0.0097
      9 C         142.9660  140.5409  164.7897 C.ar    1  UNL1        0.0380
     10 C         141.2083  140.5275  168.2503 C.ar    1  UNL1        0.0060
     11 C         141.9395  140.3919  169.5530 C.ar    1  UNL1        0.0005
     12 C         141.1776  140.1176  170.8156 C.ar    1  UNL1        0.0000
     13 C         139.6846  139.9789  170.7757 C.ar    1  UNL1        0.0000
     14 C         138.9534  140.1146  169.4730 C.ar    1  UNL1        0.0000
     15 C         139.7153  140.3889  168.2103 C.ar    1  UNL1        0.0005
     16 C         144.5079  144.1934  164.9702 C.2     1  UNL1        0.2448
     17 N         143.9476  145.4121  164.2989 N.am    1  UNL1       -0.3253
     18 O         145.4211  144.3405  166.1510 O.2     1  UNL1       -0.2703
     19 H         143.3482  145.3155  163.5239 H       1  UNL1        0.1453
     20 H         144.1792  146.3087  164.6333 H       1  UNL1        0.1453
     21 N         143.0965  138.7295  162.9318 N.pl3   1  UNL1       -0.3184
     22 H         143.7351  137.9869  163.0314 H       1  UNL1        0.1482
     23 C         141.0815  136.9134  164.2130 C.3     1  UNL1        0.0188
     24 C         140.7633  137.5870  162.9111 C.3     1  UNL1        0.0722
     25 N         139.4375  137.3526  162.2498 N.3     1  UNL1       -0.2972
     26 C         139.1192  138.0262  160.9478 C.3     1  UNL1        0.0686
     27 C         140.1267  138.9342  160.3073 C.3     1  UNL1        0.0188
     28 C         141.4525  139.1687  160.9686 C.3     1  UNL1        0.0223
     29 C         141.7708  138.4951  162.2705 C.3     1  UNL1        0.0847
     30 H         138.7211  137.6438  162.9149 H       1  UNL1        0.1233
@<TRIPOS>BOND
     1    24    23    1
     2    24    25    1
     3    25    26    1
     4    26    27    1
     5    27    28    1
     6    28    29    1
     7    29    21    1
     8    21     1    1
     9     1     2   ar
    10     2     3   ar
    11     3     4   ar
    12     4    16    1
    13    16    17   am
    14    16    18    2
    15     4     5   ar
    16     5     6   ar
    17     6     7   ar
    18     7    10    1
    19    10    11   ar
    20    11    12   ar
    21    12    13   ar
    22    13    14   ar
    23    14    15   ar
    24     7     8   ar
    25     8     9   ar
    26    29    24    1
    27     9     1   ar
    28     9     5   ar
    29    15    10   ar
    30    25    30    1
    31    21    22    1
    32    17    19    1
    33    17    20    1
@<TRIPOS>MOLECULE
*****
 30 33 0 0 0
SMALL
GASTEIGER

@<TRIPOS>ATOM
      1 C         143.1218  141.9071  166.8461 C.ar    1  UNL1        0.1289
      2 N         144.1994  142.9503  166.8217 N.ar    1  UNL1       -0.2292
      3 C         144.5332  143.6538  165.5398 C.ar    1  UNL1        0.1053
      4 C         143.7894  143.3143  164.2821 C.ar    1  UNL1        0.0783
      5 C         142.7118  142.2712  164.3065 C.ar    1  UNL1        0.0380
      6 S         141.8148  141.7295  163.2332 S.2     1  UNL1       -0.0866
      7 C         140.9267  140.6910  163.8519 C.ar    1  UNL1        0.0296
      8 C         141.2747  140.5910  165.3076 C.ar    1  UNL1        0.0097
      9 C         142.3780  141.5676  165.5885 C.ar    1  UNL1        0.0380
     10 C         139.8750  139.8927  163.1400 C.ar    1  UNL1        0.0060
     11 C         139.0543  140.5296  162.0580 C.ar    1  UNL1        0.0005
     12 C         138.0027  139.7312  161.3461 C.ar    1  UNL1        0.0000
     13 C         137.7718  138.2961  161.7161 C.ar    1  UNL1        0.0000
     14 C         138.5926  137.6592  162.7981 C.ar    1  UNL1        0.0000
     15 C         139.6442  138.4576  163.5100 C.ar    1  UNL1        0.0005
     16 C         144.1233  144.0180  163.0001 C.2     1  UNL1        0.2448
     17 N         144.9316  143.3175  161.9485 N.am    1  UNL1       -0.3253
     18 O         143.6488  145.4222  162.7698 O.2     1  UNL1       -0.2703
     19 H         145.2429  142.3958  162.0997 H       1  UNL1        0.1453
     20 H         145.1507  143.7793  161.1072 H       1  UNL1        0.1453
     21 N         142.7879  141.2035  168.1281 N.pl3   1  UNL1       -0.3184
     22 H         143.2627  140.3769  168.3740 H       1  UNL1        0.1482
     23 C         141.4640  139.4288  170.1524 C.3     1  UNL1        0.0188
     24 C         141.0688  140.8720  170.0476 C.3     1  UNL1        0.0722
     25 N         140.0116  141.4279  170.9550 N.3     1  UNL1       -0.2972
     26 C         139.6163  142.8712  170.8502 C.3     1  UNL1        0.0686
     27 C         140.2783  143.7585  169.8381 C.3     1  UNL1        0.0188
     28 C         141.3355  143.2026  168.9307 C.3     1  UNL1        0.0223
     29 C         141.7307  141.7594  169.0355 C.3     1  UNL1        0.0847
     30 H         140.3363  141.2802  171.9106 H       1  UNL1        0.1233
@<TRIPOS>BOND
     1    24    23    1
     2    24    25    1
     3    25    26    1
     4    26    27    1
     5    27    28    1
     6    28    29    1
     7    29    21    1
     8    21     1    1
     9     1     2   ar
    10     2     3   ar
    11     3     4   ar
    12     4    16    1
    13    16    17   am
    14    16    18    2
    15     4     5   ar
    16     5     6   ar
    17     6     7   ar
    18     7    10    1
    19    10    11   ar
    20    11    12   ar
    21    12    13   ar
    22    13    14   ar
    23    14    15   ar
    24     7     8   ar
    25     8     9   ar
    26    29    24    1
    27     9     1   ar
    28     9     5   ar
    29    15    10   ar
    30    25    30    1
    31    21    22    1
    32    17    19    1
    33    17    20    1
