@<TRIPOS>MOLECULE
*****
 19 20 0 0 0
SMALL
GASTEIGER

@<TRIPOS>ATOM
      1 C         140.6706  138.5711  165.1055 C.2     1  UNL1       -0.0364
      2 C         142.1090  138.1531  165.1825 C.2     1  UNL1       -0.0041
      3 C         142.9640  138.6143  166.3255 C.2     1  UNL1        0.0495
      4 C         142.3804  139.4936  167.3914 C.2     1  UNL1        0.2318
      5 N         142.9739  140.1005  168.6281 N.2     1  UNL1       -0.0338
      6 C         141.9022  140.8937  169.3154 C.2     1  UNL1        0.3632
      7 N         140.6464  140.7770  168.5035 N.2     1  UNL1       -0.0377
      8 C         140.9420  139.9117  167.3144 C.2     1  UNL1        0.2171
      9 C         140.0870  139.4504  166.1714 C.3     1  UNL1        0.0997
     10 C         142.0589  141.6677  170.5908 C.3     1  UNL1        0.1416
     11 C         143.2383  142.3887  170.0083 C.3     1  UNL1        0.0283
     12 C         140.8797  140.9466  171.1732 C.3     1  UNL1        0.0283
     13 N         142.2156  142.4416  171.8661 N.3     1  UNL1       -0.3139
     14 H         143.0072  143.0793  171.7818 H       1  UNL1        0.1193
     15 H         142.3803  141.7954  172.6379 H       1  UNL1        0.1193
     16 C         140.9385  137.2449  163.4717 C.3     1  UNL1        0.0041
     17 C         139.8156  138.1099  163.9625 C.3     1  UNL1        0.0156
     18 C         138.6928  138.9749  164.4534 C.3     1  UNL1        0.0041
     19 C         138.9607  137.6487  162.8196 C.3     1  UNL1        0.0041
@<TRIPOS>BOND
     1    16    17    1
     2    17    18    1
     3    17    19    1
     4    17     1    1
     5     1     2    2
     6     2     3    1
     7     3     4    2
     8     4     5    1
     9     5     6    2
    10     6    10    1
    11    10    11    1
    12    10    12    1
    13    10    13    1
    14     6     7    1
    15     7     8    2
    16     8     9    1
    17     9     1    1
    18     8     4    1
    19    13    14    1
    20    13    15    1
@<TRIPOS>MOLECULE
*****
 19 20 0 0 0
SMALL
GASTEIGER

@<TRIPOS>ATOM
      1 C         139.6616  138.6713  165.2117 C.2     1  UNL1       -0.0364
      2 C         138.3239  138.5622  165.8814 C.2     1  UNL1       -0.0041
      3 C         138.1321  139.1052  167.2665 C.2     1  UNL1        0.0495
      4 C         139.2780  139.7571  167.9819 C.2     1  UNL1        0.2318
      5 N         139.3885  140.3796  169.3422 N.2     1  UNL1       -0.0338
      6 C         140.7946  140.8733  169.5131 C.2     1  UNL1        0.3632
      7 N         141.5530  140.5561  168.2585 N.2     1  UNL1       -0.0377
      8 C         140.6157  139.8662  167.3121 C.2     1  UNL1        0.2171
      9 C         140.8075  139.3233  165.9271 C.3     1  UNL1        0.0997
     10 C         141.3454  141.5632  170.7259 C.3     1  UNL1        0.1416
     11 C         140.2066  142.5389  170.6881 C.3     1  UNL1        0.0283
     12 C         142.4842  140.5876  170.7636 C.3     1  UNL1        0.0283
     13 N         141.8963  142.2530  171.9386 N.3     1  UNL1       -0.3139
     14 H         141.2911  143.0349  172.1893 H       1  UNL1        0.1193
     15 H         142.8338  142.6001  171.7358 H       1  UNL1        0.1193
     16 C         138.6366  138.8747  163.3656 C.3     1  UNL1        0.0041
     17 C         139.8534  138.1284  163.8266 C.3     1  UNL1        0.0156
     18 C         141.0702  137.3821  164.2877 C.3     1  UNL1        0.0041
     19 C         140.0452  137.5855  162.4416 C.3     1  UNL1        0.0041
@<TRIPOS>BOND
     1    16    17    1
     2    17    18    1
     3    17    19    1
     4    17     1    1
     5     1     2    2
     6     2     3    1
     7     3     4    2
     8     4     5    1
     9     5     6    2
    10     6    10    1
    11    10    11    1
    12    10    12    1
    13    10    13    1
    14     6     7    1
    15     7     8    2
    16     8     9    1
    17     9     1    1
    18     8     4    1
    19    13    14    1
    20    13    15    1
@<TRIPOS>MOLECULE
*****
 19 20 0 0 0
SMALL
GASTEIGER

@<TRIPOS>ATOM
      1 C         138.9151  139.4653  165.1381 C.2     1  UNL1       -0.0364
      2 C         138.1662  138.9010  166.3088 C.2     1  UNL1       -0.0041
      3 C         138.4991  139.3520  167.7001 C.2     1  UNL1        0.0495
      4 C         139.5810  140.3674  167.9207 C.2     1  UNL1        0.2318
      5 N         140.1264  140.9982  169.1675 N.2     1  UNL1       -0.0338
      6 C         141.2124  141.9524  168.7673 C.2     1  UNL1        0.3632
      7 N         141.3382  141.9113  167.2731 N.2     1  UNL1       -0.0377
      8 C         140.3299  140.9317  166.7499 C.2     1  UNL1        0.2171
      9 C         139.9969  140.4806  165.3586 C.3     1  UNL1        0.0997
     10 C         142.0293  142.7990  169.6979 C.3     1  UNL1        0.1416
     11 C         143.2275  141.9371  169.4304 C.3     1  UNL1        0.0283
     12 C         140.8312  143.6609  169.9654 C.3     1  UNL1        0.0283
     13 N         142.8461  143.6457  170.6285 N.3     1  UNL1       -0.3139
     14 H         143.7994  143.2850  170.6680 H       1  UNL1        0.1193
     15 H         142.4341  143.6202  171.5613 H       1  UNL1        0.1193
     16 C         139.2634  137.7037  164.0086 C.3     1  UNL1        0.0041
     17 C         138.5821  139.0142  163.7468 C.3     1  UNL1        0.0156
     18 C         137.9009  140.3247  163.4850 C.3     1  UNL1        0.0041
     19 C         138.2492  138.5632  162.3555 C.3     1  UNL1        0.0041
@<TRIPOS>BOND
     1    16    17    1
     2    17    18    1
     3    17    19    1
     4    17     1    1
     5     1     2    2
     6     2     3    1
     7     3     4    2
     8     4     5    1
     9     5     6    2
    10     6    10    1
    11    10    11    1
    12    10    12    1
    13    10    13    1
    14     6     7    1
    15     7     8    2
    16     8     9    1
    17     9     1    1
    18     8     4    1
    19    13    14    1
    20    13    15    1
@<TRIPOS>MOLECULE
*****
 19 20 0 0 0
SMALL
GASTEIGER

@<TRIPOS>ATOM
      1 C         140.9178  141.7375  168.5275 C.2     1  UNL1       -0.0364
      2 C         140.2240  140.4835  168.9703 C.2     1  UNL1       -0.0041
      3 C         139.3168  139.7542  168.0242 C.2     1  UNL1        0.0495
      4 C         139.1033  140.2789  166.6353 C.2     1  UNL1        0.2318
      5 N         138.2735  139.7792  165.4900 N.2     1  UNL1       -0.0338
      6 C         138.4544  140.7243  164.3394 C.2     1  UNL1        0.3632
      7 N         139.3960  141.8082  164.7735 N.2     1  UNL1       -0.0377
      8 C         139.7970  141.5330  166.1925 C.2     1  UNL1        0.2171
      9 C         140.7043  142.2622  167.1386 C.3     1  UNL1        0.0997
     10 C         137.8073  140.6062  162.9912 C.3     1  UNL1        0.1416
     11 C         138.2493  139.1753  162.9044 C.3     1  UNL1        0.0283
     12 C         137.3654  142.0369  163.0780 C.3     1  UNL1        0.0283
     13 N         137.1603  140.4881  161.6432 N.3     1  UNL1       -0.3139
     14 H         137.2969  139.5441  161.2819 H       1  UNL1        0.1193
     15 H         137.5821  141.1613  161.0034 H       1  UNL1        0.1193
     16 C         140.7378  143.4631  169.7481 C.3     1  UNL1        0.0041
     17 C         141.8250  142.4668  169.4735 C.3     1  UNL1        0.0156
     18 C         142.9122  141.4705  169.1989 C.3     1  UNL1        0.0041
     19 C         142.7322  143.1961  170.4196 C.3     1  UNL1        0.0041
@<TRIPOS>BOND
     1    16    17    1
     2    17    18    1
     3    17    19    1
     4    17     1    1
     5     1     2    2
     6     2     3    1
     7     3     4    2
     8     4     5    1
     9     5     6    2
    10     6    10    1
    11    10    11    1
    12    10    12    1
    13    10    13    1
    14     6     7    1
    15     7     8    2
    16     8     9    1
    17     9     1    1
    18     8     4    1
    19    13    14    1
    20    13    15    1
@<TRIPOS>MOLECULE
*****
 19 20 0 0 0
SMALL
GASTEIGER

@<TRIPOS>ATOM
      1 C         139.0716  139.8580  164.3438 C.2     1  UNL1       -0.0364
      2 C         139.6154  141.2100  163.9888 C.2     1  UNL1       -0.0041
      3 C         140.0918  142.1344  165.0698 C.2     1  UNL1        0.0495
      4 C         140.0243  141.7067  166.5059 C.2     1  UNL1        0.2318
      5 N         140.4168  142.3972  167.7784 N.2     1  UNL1       -0.0338
      6 C         140.1156  141.4718  168.9199 C.2     1  UNL1        0.3632
      7 N         139.5369  140.2094  168.3530 N.2     1  UNL1       -0.0377
      8 C         139.4805  140.3546  166.8610 C.2     1  UNL1        0.2171
      9 C         139.0042  139.4302  165.7800 C.3     1  UNL1        0.0997
     10 C         140.3517  141.7586  170.3732 C.3     1  UNL1        0.1416
     11 C         140.4109  140.2862  170.6541 C.3     1  UNL1        0.0283
     12 C         140.2925  143.2308  170.0923 C.3     1  UNL1        0.0283
     13 N         140.5878  142.0453  171.8265 N.3     1  UNL1       -0.3139
     14 H         140.6793  141.1665  172.3360 H       1  UNL1        0.1193
     15 H         139.8005  142.5750  172.2008 H       1  UNL1        0.1193
     16 C         138.0524  140.1055  162.4999 C.3     1  UNL1        0.0041
     17 C         138.5953  138.9336  163.2628 C.3     1  UNL1        0.0156
     18 C         139.1381  137.7617  164.0256 C.3     1  UNL1        0.0041
     19 C         138.1190  138.0092  162.1817 C.3     1  UNL1        0.0041
@<TRIPOS>BOND
     1    16    17    1
     2    17    18    1
     3    17    19    1
     4    17     1    1
     5     1     2    2
     6     2     3    1
     7     3     4    2
     8     4     5    1
     9     5     6    2
    10     6    10    1
    11    10    11    1
    12    10    12    1
    13    10    13    1
    14     6     7    1
    15     7     8    2
    16     8     9    1
    17     9     1    1
    18     8     4    1
    19    13    14    1
    20    13    15    1
@<TRIPOS>MOLECULE
*****
 19 20 0 0 0
SMALL
GASTEIGER

@<TRIPOS>ATOM
      1 C         139.6319  140.2052  167.7809 C.2     1  UNL1       -0.0364
      2 C         138.6472  139.1411  167.3965 C.2     1  UNL1       -0.0041
      3 C         137.9871  139.1811  166.0501 C.2     1  UNL1        0.0495
      4 C         138.3118  140.2852  165.0881 C.2     1  UNL1        0.2318
      5 N         137.8234  140.5846  163.7018 N.2     1  UNL1       -0.0338
      6 C         138.5064  141.8338  163.2295 C.2     1  UNL1        0.3632
      7 N         139.4168  142.3065  164.3238 N.2     1  UNL1       -0.0377
      8 C         139.2966  141.3493  165.4726 C.2     1  UNL1        0.2171
      9 C         139.9566  141.3094  166.8190 C.3     1  UNL1        0.0997
     10 C         138.3127  142.4944  161.8967 C.3     1  UNL1        0.1416
     11 C         138.2484  143.8335  162.5697 C.3     1  UNL1        0.0283
     12 C         138.3771  141.1554  161.2238 C.3     1  UNL1        0.0283
     13 N         138.1191  143.1549  160.5640 N.3     1  UNL1       -0.3139
     14 H         138.0340  144.1631  160.6933 H       1  UNL1        0.1193
     15 H         137.2708  142.7954  160.1264 H       1  UNL1        0.1193
     16 C         138.9675  140.4194  169.7841 C.3     1  UNL1        0.0041
     17 C         140.2919  140.1653  169.1273 C.3     1  UNL1        0.0156
     18 C         141.6163  139.9111  168.4705 C.3     1  UNL1        0.0041
     19 C         140.9520  140.1253  170.4737 C.3     1  UNL1        0.0041
@<TRIPOS>BOND
     1    16    17    1
     2    17    18    1
     3    17    19    1
     4    17     1    1
     5     1     2    2
     6     2     3    1
     7     3     4    2
     8     4     5    1
     9     5     6    2
    10     6    10    1
    11    10    11    1
    12    10    12    1
    13    10    13    1
    14     6     7    1
    15     7     8    2
    16     8     9    1
    17     9     1    1
    18     8     4    1
    19    13    14    1
    20    13    15    1
@<TRIPOS>MOLECULE
*****
 19 20 0 0 0
SMALL
GASTEIGER

@<TRIPOS>ATOM
      1 C         140.7931  140.0029  168.3636 C.2     1  UNL1       -0.0364
      2 C         142.0365  139.6328  167.6106 C.2     1  UNL1       -0.0041
      3 C         141.9682  139.3630  166.1367 C.2     1  UNL1        0.0495
      4 C         140.6567  139.4633  165.4157 C.2     1  UNL1        0.2318
      5 N         140.2832  139.2558  163.9779 N.2     1  UNL1       -0.0338
      6 C         138.8091  139.4978  163.8423 C.2     1  UNL1        0.3632
      7 N         138.2714  139.8547  165.1963 N.2     1  UNL1       -0.0377
      8 C         139.4134  139.8334  166.1688 C.2     1  UNL1        0.2171
      9 C         139.4816  140.1033  167.6427 C.3     1  UNL1        0.0997
     10 C         138.0125  139.3999  162.5750 C.3     1  UNL1        0.1416
     11 C         137.5142  140.7998  162.7800 C.3     1  UNL1        0.0283
     12 C         138.5107  138.0000  162.3700 C.3     1  UNL1        0.0283
     13 N         137.2159  139.3020  161.3078 N.3     1  UNL1       -0.3139
     14 H         136.7159  140.1773  161.1520 H       1  UNL1        0.1193
     15 H         136.5458  138.5369  161.3857 H       1  UNL1        0.1193
     16 C         139.5305  140.9617  169.7731 C.3     1  UNL1        0.0041
     17 C         140.8614  140.2728  169.8376 C.3     1  UNL1        0.0156
     18 C         142.1922  139.5838  169.9021 C.3     1  UNL1        0.0041
     19 C         140.9296  140.5426  171.3115 C.3     1  UNL1        0.0041
@<TRIPOS>BOND
     1    16    17    1
     2    17    18    1
     3    17    19    1
     4    17     1    1
     5     1     2    2
     6     2     3    1
     7     3     4    2
     8     4     5    1
     9     5     6    2
    10     6    10    1
    11    10    11    1
    12    10    12    1
    13    10    13    1
    14     6     7    1
    15     7     8    2
    16     8     9    1
    17     9     1    1
    18     8     4    1
    19    13    14    1
    20    13    15    1
@<TRIPOS>MOLECULE
*****
 19 20 0 0 0
SMALL
GASTEIGER

@<TRIPOS>ATOM
      1 C         140.9561  140.9416  168.7084 C.2     1  UNL1       -0.0364
      2 C         142.2051  140.2128  169.1069 C.2     1  UNL1       -0.0041
      3 C         142.8889  139.3054  168.1276 C.2     1  UNL1        0.0495
      4 C         142.3237  139.1268  166.7497 C.2     1  UNL1        0.2318
      5 N         142.7747  138.3053  165.5785 N.2     1  UNL1       -0.0338
      6 C         141.8045  138.5264  164.4561 C.2     1  UNL1        0.3632
      7 N         140.7538  139.4845  164.9336 N.2     1  UNL1       -0.0377
      8 C         141.0747  139.8556  166.3511 C.2     1  UNL1        0.2171
      9 C         140.3909  140.7630  167.3305 C.3     1  UNL1        0.0997
     10 C         141.8729  137.8994  163.0951 C.3     1  UNL1        0.1416
     11 C         140.5137  137.2999  163.3029 C.3     1  UNL1        0.0283
     12 C         143.2321  138.4988  162.8873 C.3     1  UNL1        0.0283
     13 N         141.9415  137.2724  161.7342 N.3     1  UNL1       -0.3139
     14 H         141.0856  136.7460  161.5589 H       1  UNL1        0.1193
     15 H         142.7429  136.6430  161.6897 H       1  UNL1        0.1193
     16 C         141.3249  142.8922  169.4560 C.3     1  UNL1        0.0041
     17 C         140.2723  141.8490  169.6877 C.3     1  UNL1        0.0156
     18 C         139.2197  140.8057  169.9194 C.3     1  UNL1        0.0041
     19 C         139.5886  142.7563  170.6670 C.3     1  UNL1        0.0041
@<TRIPOS>BOND
     1    16    17    1
     2    17    18    1
     3    17    19    1
     4    17     1    1
     5     1     2    2
     6     2     3    1
     7     3     4    2
     8     4     5    1
     9     5     6    2
    10     6    10    1
    11    10    11    1
    12    10    12    1
    13    10    13    1
    14     6     7    1
    15     7     8    2
    16     8     9    1
    17     9     1    1
    18     8     4    1
    19    13    14    1
    20    13    15    1
@<TRIPOS>MOLECULE
*****
 19 20 0 0 0
SMALL
GASTEIGER

@<TRIPOS>ATOM
      1 C         141.5939  143.5728  164.7755 C.2     1  UNL1       -0.0364
      2 C         142.9971  143.0743  164.9554 C.2     1  UNL1       -0.0041
      3 C         143.3293  142.1667  166.1026 C.2     1  UNL1        0.0495
      4 C         142.2583  141.7576  167.0698 C.2     1  UNL1        0.2318
      5 N         142.2863  140.8806  168.2863 N.2     1  UNL1       -0.0338
      6 C         140.9003  140.8371  168.8583 C.2     1  UNL1        0.3632
      7 N         140.0157  141.6872  167.9953 N.2     1  UNL1       -0.0377
      8 C         140.8551  142.2561  166.8898 C.2     1  UNL1        0.2171
      9 C         140.5229  143.1637  165.7427 C.3     1  UNL1        0.0997
     10 C         140.4737  140.0769  170.0791 C.3     1  UNL1        0.1416
     11 C         139.0437  140.4365  169.8034 C.3     1  UNL1        0.0283
     12 C         141.9036  139.7173  170.3547 C.3     1  UNL1        0.0283
     13 N         140.0472  139.3167  171.2998 N.3     1  UNL1       -0.3139
     14 H         139.0338  139.3749  171.3998 H       1  UNL1        0.1193
     15 H         140.4939  139.7187  172.1240 H       1  UNL1        0.1193
     16 C         142.5827  145.1717  163.7927 C.3     1  UNL1        0.0041
     17 C         141.2617  144.4804  163.6284 C.3     1  UNL1        0.0156
     18 C         139.9406  143.7891  163.4640 C.3     1  UNL1        0.0041
     19 C         140.9294  145.3880  162.4812 C.3     1  UNL1        0.0041
@<TRIPOS>BOND
     1    16    17    1
     2    17    18    1
     3    17    19    1
     4    17     1    1
     5     1     2    2
     6     2     3    1
     7     3     4    2
     8     4     5    1
     9     5     6    2
    10     6    10    1
    11    10    11    1
    12    10    12    1
    13    10    13    1
    14     6     7    1
    15     7     8    2
    16     8     9    1
    17     9     1    1
    18     8     4    1
    19    13    14    1
    20    13    15    1
