@<TRIPOS>MOLECULE
*****
 39 44 0 0 0
SMALL
GASTEIGER

@<TRIPOS>ATOM
      1 C         142.6760  135.6676  157.3419 C.ar    1  UNL1        0.2400
      2 N         142.1690  135.2844  155.9832 N.ar    1  UNL1       -0.2090
      3 C         141.4937  136.3076  155.1187 C.ar    1  UNL1        0.1037
      4 C         141.1613  137.8027  155.3041 C.ar    1  UNL1        0.0400
      5 C         141.8623  137.2068  156.4888 C.ar    1  UNL1        0.0237
      6 C         142.5079  137.0737  157.8362 C.ar    1  UNL1        0.1179
      7 N         143.0282  137.4180  159.2003 N.pl3   1  UNL1       -0.2104
      8 S         143.3668  138.2023  160.4333 S.O2    1  UNL1        0.0737
      9 O         143.7950  136.7662  160.4962 O.2     1  UNL1       -0.1499
     10 O         144.0494  137.8328  161.7167 O.2     1  UNL1       -0.1499
     11 C         143.4331  139.6863  161.4945 C.ar    1  UNL1        0.1253
     12 C         144.0995  139.4342  162.8145 C.ar    1  UNL1        0.0202
     13 C         144.2387  140.5481  163.8092 C.ar    1  UNL1        0.0015
     14 C         143.7116  141.9143  163.4840 C.ar    1  UNL1        0.0046
     15 C         143.0452  142.1665  162.1641 C.ar    1  UNL1        0.0547
     16 C         142.9060  141.0525  161.1693 C.ar    1  UNL1        0.0247
     17 C         142.5311  143.5458  161.8758 C.2     1  UNL1        0.2459
     18 O         142.9194  144.2264  163.1549 O.2     1  UNL1       -0.2701
     19 N         141.8892  144.7011  161.1666 N.am    1  UNL1       -0.2989
     20 C         141.1889  145.5072  160.1130 C.3     1  UNL1        0.1161
     21 C         140.5063  145.8768  158.8294 C.3     1  UNL1        0.1487
     22 N         139.9153  145.7697  157.4549 N.ar    1  UNL1       -0.2476
     23 C         139.4799  145.1976  156.1385 C.ar    1  UNL1        0.0982
     24 C         139.2474  144.2225  155.0227 C.ar    1  UNL1        0.0589
     25 C         138.7660  145.6292  154.8239 C.ar    1  UNL1        0.1232
     26 N         139.1047  146.4135  156.0569 N.ar    1  UNL1       -0.1676
     27 C         139.2428  142.9500  154.2284 C.ar    1  UNL1        0.1066
     28 C         138.5398  143.6323  153.0925 C.ar    1  UNL1        0.1198
     29 N         138.3293  142.6220  152.0039 N.ar    1  UNL1       -0.2234
     30 C         138.9022  141.3154  152.4670 C.ar    1  UNL1        0.1639
     31 C         139.2879  139.5342  152.2234 C.ar    1  UNL1        0.0404
     32 C         139.9548  138.4705  153.0443 C.ar    1  UNL1        0.0240
     33 C         140.4810  138.7970  154.4105 C.ar    1  UNL1        0.1030
     34 N         139.8949  140.0818  153.9047 N.ar    1  UNL1       -0.1637
     35 N         139.4667  141.5181  153.8418 N.ar    1  UNL1       -0.2106
     36 H         143.3905  136.5407  159.4617 H       1  UNL1        0.1739
     37 H         142.0054  145.3974  161.8528 H       1  UNL1        0.1498
     38 C         144.1000  133.5072  157.5769 C.3     1  UNL1        0.2543
     39 O         143.3513  134.6444  158.2063 O.3     1  UNL1       -0.4553
@<TRIPOS>BOND
     1    38    39    1
     2    39     1    1
     3     1     2   ar
     4     2     3   ar
     5     3     4   ar
     6     4     5   ar
     7     5     6   ar
     8     6     7    1
     9     7     8    1
    10     8     9    2
    11     8    10    2
    12     8    11    1
    13    11    12   ar
    14    12    13   ar
    15    13    14   ar
    16    14    15   ar
    17    15    16   ar
    18    15    17    1
    19    17    18    2
    20    17    19   am
    21    19    20    1
    22    20    21    1
    23    21    22    1
    24    22    23   ar
    25    23    24   ar
    26    24    25   ar
    27    25    26   ar
    28    24    27    1
    29    27    28   ar
    30    28    29   ar
    31    29    30   ar
    32    30    31   ar
    33    31    32   ar
    34    32    33   ar
    35    33    34   ar
    36    34    35   ar
    37     6     1   ar
    38    16    11   ar
    39    26    22   ar
    40    35    27   ar
    41    33     4    1
    42    35    30   ar
    43     7    36    1
    44    19    37    1
@<TRIPOS>MOLECULE
*****
 39 44 0 0 0
SMALL
GASTEIGER

@<TRIPOS>ATOM
      1 C         139.2917  146.9436  156.8560 C.ar    1  UNL1        0.2400
      2 N         139.2391  146.9045  155.3574 N.ar    1  UNL1       -0.2090
      3 C         139.6631  145.6664  154.6241 C.ar    1  UNL1        0.1037
      4 C         140.1912  144.2902  155.0794 C.ar    1  UNL1        0.0400
      5 C         139.9012  145.2148  156.2244 C.ar    1  UNL1        0.0237
      6 C         139.7681  145.7449  157.6213 C.ar    1  UNL1        0.1179
      7 N         139.8063  145.8228  159.1188 N.pl3   1  UNL1       -0.2104
      8 S         140.0117  145.4402  160.5546 S.O2    1  UNL1        0.0737
      9 O         139.4892  146.8342  160.3713 O.2     1  UNL1       -0.1499
     10 O         139.7972  146.1776  161.8431 O.2     1  UNL1       -0.1499
     11 C         140.4805  144.3363  161.9311 C.ar    1  UNL1        0.1253
     12 C         140.3061  144.9722  163.2783 C.ar    1  UNL1        0.0202
     13 C         140.6455  144.2027  164.5204 C.ar    1  UNL1        0.0015
     14 C         141.1593  142.7974  164.4151 C.ar    1  UNL1        0.0046
     15 C         141.3337  142.1615  163.0678 C.ar    1  UNL1        0.0547
     16 C         140.9943  142.9310  161.8258 C.ar    1  UNL1        0.0247
     17 C         141.8499  140.7546  163.0038 C.2     1  UNL1        0.2459
     18 O         142.0148  140.4851  164.4701 O.2     1  UNL1       -0.2701
     19 N         142.3118  139.4364  162.4571 N.am    1  UNL1       -0.2989
     20 C         142.6693  138.3497  161.4868 C.3     1  UNL1        0.1161
     21 C         142.8837  137.6123  160.1983 C.3     1  UNL1        0.1487
     22 N         142.9319  137.3041  158.7311 N.ar    1  UNL1       -0.2476
     23 C         142.8084  137.4586  157.2442 C.ar    1  UNL1        0.0982
     24 C         142.5268  138.0588  155.8987 C.ar    1  UNL1        0.0589
     25 C         143.0472  136.6525  155.9338 C.ar    1  UNL1        0.1232
     26 N         143.2525  136.2699  157.3696 N.ar    1  UNL1       -0.1676
     27 C         142.1175  139.0400  154.8405 C.ar    1  UNL1        0.1066
     28 C         142.4355  138.0473  153.7619 C.ar    1  UNL1        0.1198
     29 N         142.1395  138.6893  152.4390 N.ar    1  UNL1       -0.2234
     30 C         141.6385  140.0788  152.7000 C.ar    1  UNL1        0.1639
     31 C         141.0108  141.7117  152.1336 C.ar    1  UNL1        0.0404
     32 C         140.5749  142.9756  152.8139 C.ar    1  UNL1        0.0240
     33 C         140.6066  143.0711  154.3105 C.ar    1  UNL1        0.1030
     34 N         141.1024  141.6897  154.0008 N.ar    1  UNL1       -0.1637
     35 N         141.6249  140.2956  154.1841 N.ar    1  UNL1       -0.2106
     36 H         139.4731  146.7409  159.2418 H       1  UNL1        0.1739
     37 H         142.5198  138.9748  163.3014 H       1  UNL1        0.1498
     38 C         138.4834  149.4126  156.8229 C.3     1  UNL1        0.2543
     39 O         138.8677  148.1817  157.5891 O.3     1  UNL1       -0.4553
@<TRIPOS>BOND
     1    38    39    1
     2    39     1    1
     3     1     2   ar
     4     2     3   ar
     5     3     4   ar
     6     4     5   ar
     7     5     6   ar
     8     6     7    1
     9     7     8    1
    10     8     9    2
    11     8    10    2
    12     8    11    1
    13    11    12   ar
    14    12    13   ar
    15    13    14   ar
    16    14    15   ar
    17    15    16   ar
    18    15    17    1
    19    17    18    2
    20    17    19   am
    21    19    20    1
    22    20    21    1
    23    21    22    1
    24    22    23   ar
    25    23    24   ar
    26    24    25   ar
    27    25    26   ar
    28    24    27    1
    29    27    28   ar
    30    28    29   ar
    31    29    30   ar
    32    30    31   ar
    33    31    32   ar
    34    32    33   ar
    35    33    34   ar
    36    34    35   ar
    37     6     1   ar
    38    16    11   ar
    39    26    22   ar
    40    35    27   ar
    41    33     4    1
    42    35    30   ar
    43     7    36    1
    44    19    37    1
@<TRIPOS>MOLECULE
*****
 39 44 0 0 0
SMALL
GASTEIGER

@<TRIPOS>ATOM
      1 C         143.0423  136.2102  157.2876 C.ar    1  UNL1        0.2400
      2 N         142.9578  136.0338  155.8004 N.ar    1  UNL1       -0.2090
      3 C         142.5269  137.1790  154.9326 C.ar    1  UNL1        0.1037
      4 C         142.1089  138.6351  155.2249 C.ar    1  UNL1        0.0400
      5 C         142.4594  137.8659  156.4641 C.ar    1  UNL1        0.0237
      6 C         142.6960  137.5316  157.9071 C.ar    1  UNL1        0.1179
      7 N         142.7928  137.6686  159.3977 N.pl3   1  UNL1       -0.2104
      8 S         142.7395  138.2620  160.7743 S.O2    1  UNL1        0.0737
      9 O         143.1763  136.8272  160.7531 O.2     1  UNL1       -0.1499
     10 O         143.0371  137.7026  162.1338 O.2     1  UNL1       -0.1499
     11 C         142.4529  139.5755  162.0093 C.ar    1  UNL1        0.1253
     12 C         142.7208  139.1272  163.4154 C.ar    1  UNL1        0.0202
     13 C         142.5346  140.0836  164.5559 C.ar    1  UNL1        0.0015
     14 C         142.0804  141.4882  164.2902 C.ar    1  UNL1        0.0046
     15 C         141.8124  141.9366  162.8841 C.ar    1  UNL1        0.0547
     16 C         141.9987  140.9802  161.7437 C.ar    1  UNL1        0.0247
     17 C         141.3597  143.3488  162.6591 C.2     1  UNL1        0.2459
     18 O         141.3441  143.8323  164.0789 O.2     1  UNL1       -0.2701
     19 N         140.9122  144.6019  161.9667 N.am    1  UNL1       -0.2989
     20 C         140.5182  145.5600  160.8819 C.3     1  UNL1        0.1161
     21 C         140.2206  146.1194  159.5222 C.3     1  UNL1        0.1487
     22 N         140.0516  146.2194  158.0351 N.ar    1  UNL1       -0.2476
     23 C         140.0296  145.8491  156.5817 C.ar    1  UNL1        0.0982
     24 C         140.1568  145.0488  155.3195 C.ar    1  UNL1        0.0589
     25 C         139.7090  146.4748  155.1925 C.ar    1  UNL1        0.1232
     26 N         139.6557  147.0681  156.5692 N.ar    1  UNL1       -0.1676
     27 C         140.4195  143.9051  154.3852 C.ar    1  UNL1        0.1066
     28 C         140.0504  144.7527  153.2040 C.ar    1  UNL1        0.1198
     29 N         140.1920  143.9134  151.9688 N.ar    1  UNL1       -0.2234
     30 C         140.6486  142.5471  152.3867 C.ar    1  UNL1        0.1639
     31 C         141.1433  140.8158  152.0140 C.ar    1  UNL1        0.0404
     32 C         141.5799  139.6369  152.8323 C.ar    1  UNL1        0.0240
     33 C         141.6824  139.7560  154.3240 C.ar    1  UNL1        0.1030
     34 N         141.2260  141.1071  153.8589 N.ar    1  UNL1       -0.1637
     35 N         140.7892  142.5420  153.8801 N.ar    1  UNL1       -0.2106
     36 H         143.0922  136.7587  159.6249 H       1  UNL1        0.1739
     37 H         140.8052  145.1899  162.7490 H       1  UNL1        0.1498
     38 C         143.9060  133.7719  157.5303 C.3     1  UNL1        0.2543
     39 O         143.4732  135.0650  158.1553 O.3     1  UNL1       -0.4553
@<TRIPOS>BOND
     1    38    39    1
     2    39     1    1
     3     1     2   ar
     4     2     3   ar
     5     3     4   ar
     6     4     5   ar
     7     5     6   ar
     8     6     7    1
     9     7     8    1
    10     8     9    2
    11     8    10    2
    12     8    11    1
    13    11    12   ar
    14    12    13   ar
    15    13    14   ar
    16    14    15   ar
    17    15    16   ar
    18    15    17    1
    19    17    18    2
    20    17    19   am
    21    19    20    1
    22    20    21    1
    23    21    22    1
    24    22    23   ar
    25    23    24   ar
    26    24    25   ar
    27    25    26   ar
    28    24    27    1
    29    27    28   ar
    30    28    29   ar
    31    29    30   ar
    32    30    31   ar
    33    31    32   ar
    34    32    33   ar
    35    33    34   ar
    36    34    35   ar
    37     6     1   ar
    38    16    11   ar
    39    26    22   ar
    40    35    27   ar
    41    33     4    1
    42    35    30   ar
    43     7    36    1
    44    19    37    1
@<TRIPOS>MOLECULE
*****
 39 44 0 0 0
SMALL
GASTEIGER

@<TRIPOS>ATOM
      1 C         140.0648  145.7847  155.2868 C.ar    1  UNL1        0.2400
      2 N         139.7053  146.8730  156.2545 N.ar    1  UNL1       -0.2090
      3 C         139.7951  146.6236  157.7309 C.ar    1  UNL1        0.1037
      4 C         140.2068  145.4025  158.5792 C.ar    1  UNL1        0.0400
      5 C         140.2864  145.1449  157.1036 C.ar    1  UNL1        0.0237
      6 C         140.5139  144.4470  155.7955 C.ar    1  UNL1        0.1179
      7 N         140.8646  143.3843  154.7966 N.pl3   1  UNL1       -0.2104
      8 S         141.3005  142.0721  154.2152 S.O2    1  UNL1        0.0737
      9 O         140.9517  143.1026  153.1826 O.2     1  UNL1       -0.1499
     10 O         141.4562  141.5878  152.8042 O.2     1  UNL1       -0.1499
     11 C         141.8791  140.3413  154.2643 C.ar    1  UNL1        0.1253
     12 C         142.0713  139.7481  152.9001 C.ar    1  UNL1        0.0202
     13 C         142.5439  138.3317  152.7580 C.ar    1  UNL1        0.0015
     14 C         142.8244  137.5084  153.9801 C.ar    1  UNL1        0.0046
     15 C         142.6321  138.1015  155.3443 C.ar    1  UNL1        0.0547
     16 C         142.1595  139.5180  155.4864 C.ar    1  UNL1        0.0247
     17 C         142.9230  137.2466  156.5420 C.2     1  UNL1        0.2459
     18 O         143.3418  135.9842  155.8484 O.2     1  UNL1       -0.2701
     19 N         143.0760  136.8071  157.9679 N.am    1  UNL1       -0.2989
     20 C         143.0746  136.8309  159.4678 C.3     1  UNL1        0.1161
     21 C         142.9189  137.3153  160.8789 C.3     1  UNL1        0.1487
     22 N         142.6258  138.2077  162.0484 N.ar    1  UNL1       -0.2476
     23 C         142.2271  139.4116  162.8494 C.ar    1  UNL1        0.0982
     24 C         141.7659  140.7963  163.1953 C.ar    1  UNL1        0.0589
     25 C         142.0810  139.8681  164.3307 C.ar    1  UNL1        0.1232
     26 N         142.5169  138.5559  163.7493 N.ar    1  UNL1       -0.1676
     27 C         141.2922  142.2121  163.0485 C.ar    1  UNL1        0.1066
     28 C         141.2438  142.3766  164.5387 C.ar    1  UNL1        0.1198
     29 N         140.7790  143.7714  164.8361 N.ar    1  UNL1       -0.2234
     30 C         140.5403  144.4689  163.5299 C.ar    1  UNL1        0.1639
     31 C         140.0454  145.9372  162.5398 C.ar    1  UNL1        0.0404
     32 C         139.9370  146.2425  161.0752 C.ar    1  UNL1        0.0240
     33 C         140.2836  145.1918  160.0623 C.ar    1  UNL1        0.1030
     34 N         140.5087  144.5357  161.3924 N.ar    1  UNL1       -0.1637
     35 N         140.8575  143.5052  162.4251 N.ar    1  UNL1       -0.2106
     36 H         140.6947  143.8819  153.9643 H       1  UNL1        0.1739
     37 H         143.3839  135.8837  157.8208 H       1  UNL1        0.1498
     38 C         141.0953  146.7324  153.0983 C.3     1  UNL1        0.2543
     39 O         139.9750  146.0341  153.8104 O.3     1  UNL1       -0.4553
@<TRIPOS>BOND
     1    38    39    1
     2    39     1    1
     3     1     2   ar
     4     2     3   ar
     5     3     4   ar
     6     4     5   ar
     7     5     6   ar
     8     6     7    1
     9     7     8    1
    10     8     9    2
    11     8    10    2
    12     8    11    1
    13    11    12   ar
    14    12    13   ar
    15    13    14   ar
    16    14    15   ar
    17    15    16   ar
    18    15    17    1
    19    17    18    2
    20    17    19   am
    21    19    20    1
    22    20    21    1
    23    21    22    1
    24    22    23   ar
    25    23    24   ar
    26    24    25   ar
    27    25    26   ar
    28    24    27    1
    29    27    28   ar
    30    28    29   ar
    31    29    30   ar
    32    30    31   ar
    33    31    32   ar
    34    32    33   ar
    35    33    34   ar
    36    34    35   ar
    37     6     1   ar
    38    16    11   ar
    39    26    22   ar
    40    35    27   ar
    41    33     4    1
    42    35    30   ar
    43     7    36    1
    44    19    37    1
@<TRIPOS>MOLECULE
*****
 39 44 0 0 0
SMALL
GASTEIGER

@<TRIPOS>ATOM
      1 C         139.1746  146.1120  156.6100 C.ar    1  UNL1        0.2400
      2 N         138.4667  146.0529  155.2888 N.ar    1  UNL1       -0.2090
      3 C         138.4015  144.7604  154.5302 C.ar    1  UNL1        0.1037
      4 C         138.9366  143.3395  154.8038 C.ar    1  UNL1        0.0400
      5 C         139.2711  144.3122  155.8956 C.ar    1  UNL1        0.0237
      6 C         139.8171  144.8790  157.1726 C.ar    1  UNL1        0.1179
      7 N         140.5155  144.9783  158.4963 N.pl3   1  UNL1       -0.2104
      8 S         141.2905  144.5996  159.7235 S.O2    1  UNL1        0.0737
      9 O         140.8814  146.0423  159.6906 O.2     1  UNL1       -0.1499
     10 O         141.7368  145.3800  160.9242 O.2     1  UNL1       -0.1499
     11 C         142.2035  143.4725  160.8321 C.ar    1  UNL1        0.1253
     12 C         142.7014  144.1484  162.0752 C.ar    1  UNL1        0.0202
     13 C         143.4729  143.3662  163.0964 C.ar    1  UNL1        0.0015
     14 C         143.7466  141.9082  162.8745 C.ar    1  UNL1        0.0046
     15 C         143.2488  141.2323  161.6314 C.ar    1  UNL1        0.0547
     16 C         142.4772  142.0145  160.6102 C.ar    1  UNL1        0.0247
     17 C         143.5426  139.7732  161.4456 C.2     1  UNL1        0.2459
     18 O         144.3062  139.5120  162.7100 O.2     1  UNL1       -0.2701
     19 N         143.5850  138.3999  160.8436 N.am    1  UNL1       -0.2989
     20 C         143.3715  137.2614  159.8905 C.3     1  UNL1        0.1161
     21 C         142.9251  136.4811  158.6897 C.3     1  UNL1        0.1487
     22 N         142.2944  136.1433  157.3714 N.ar    1  UNL1       -0.2476
     23 C         141.5475  136.2850  156.0783 C.ar    1  UNL1        0.0982
     24 C         140.7655  136.8905  154.9506 C.ar    1  UNL1        0.0589
     25 C         141.1065  135.4331  154.8520 C.ar    1  UNL1        0.1232
     26 N         141.8816  135.0544  156.0791 N.ar    1  UNL1       -0.1676
     27 C         140.0330  137.8944  154.1105 C.ar    1  UNL1        0.1066
     28 C         139.7460  136.8519  153.0708 C.ar    1  UNL1        0.1198
     29 N         138.9651  137.5010  151.9668 N.ar    1  UNL1       -0.2234
     30 C         138.7695  138.9446  152.3241 C.ar    1  UNL1        0.1639
     31 C         138.1221  140.6301  151.9765 C.ar    1  UNL1        0.0404
     32 C         138.1560  141.9486  152.6909 C.ar    1  UNL1        0.0240
     33 C         138.8499  142.0663  154.0155 C.ar    1  UNL1        0.1030
     34 N         139.0203  140.6305  153.6161 N.ar    1  UNL1       -0.1637
     35 N         139.4295  139.1877  153.6490 N.ar    1  UNL1       -0.2106
     36 H         140.3626  145.9316  158.6890 H       1  UNL1        0.1739
     37 H         144.0954  137.9319  161.5434 H       1  UNL1        0.1498
     38 C         138.7491  148.6720  156.7342 C.3     1  UNL1        0.2543
     39 O         139.2398  147.4045  157.3685 O.3     1  UNL1       -0.4553
@<TRIPOS>BOND
     1    38    39    1
     2    39     1    1
     3     1     2   ar
     4     2     3   ar
     5     3     4   ar
     6     4     5   ar
     7     5     6   ar
     8     6     7    1
     9     7     8    1
    10     8     9    2
    11     8    10    2
    12     8    11    1
    13    11    12   ar
    14    12    13   ar
    15    13    14   ar
    16    14    15   ar
    17    15    16   ar
    18    15    17    1
    19    17    18    2
    20    17    19   am
    21    19    20    1
    22    20    21    1
    23    21    22    1
    24    22    23   ar
    25    23    24   ar
    26    24    25   ar
    27    25    26   ar
    28    24    27    1
    29    27    28   ar
    30    28    29   ar
    31    29    30   ar
    32    30    31   ar
    33    31    32   ar
    34    32    33   ar
    35    33    34   ar
    36    34    35   ar
    37     6     1   ar
    38    16    11   ar
    39    26    22   ar
    40    35    27   ar
    41    33     4    1
    42    35    30   ar
    43     7    36    1
    44    19    37    1
@<TRIPOS>MOLECULE
*****
 39 44 0 0 0
SMALL
GASTEIGER

@<TRIPOS>ATOM
      1 C         143.2399  136.7073  156.4672 C.ar    1  UNL1        0.2400
      2 N         143.3311  135.8512  157.6955 N.ar    1  UNL1       -0.2090
      3 C         142.9814  136.4245  159.0369 C.ar    1  UNL1        0.1037
      4 C         142.5047  137.8145  159.5068 C.ar    1  UNL1        0.0400
      5 C         142.7244  137.7403  158.0248 C.ar    1  UNL1        0.0237
      6 C         142.7990  138.1365  156.5800 C.ar    1  UNL1        0.1179
      7 N         142.7204  138.9603  155.3290 N.pl3   1  UNL1       -0.2104
      8 S         142.4971  140.1224  154.4072 S.O2    1  UNL1        0.0737
      9 O         142.9608  138.8791  153.7079 O.2     1  UNL1       -0.1499
     10 O         142.6464  140.2856  152.9236 O.2     1  UNL1       -0.1499
     11 C         142.0446  141.8365  153.9712 C.ar    1  UNL1        0.1253
     12 C         142.1569  142.1171  152.5020 C.ar    1  UNL1        0.0202
     13 C         141.8219  143.4794  151.9709 C.ar    1  UNL1        0.0015
     14 C         141.3746  144.5609  152.9091 C.ar    1  UNL1        0.0046
     15 C         141.2623  144.2803  154.3783 C.ar    1  UNL1        0.0547
     16 C         141.5973  142.9181  154.9093 C.ar    1  UNL1        0.0247
     17 C         140.8116  145.3876  155.2842 C.2     1  UNL1        0.2459
     18 O         140.6228  146.4757  154.2692 O.2     1  UNL1       -0.2701
     19 N         140.4231  146.1367  156.5243 N.am    1  UNL1       -0.2989
     20 C         140.1388  146.4464  157.9642 C.3     1  UNL1        0.1161
     21 C         139.9896  146.2832  159.4478 C.3     1  UNL1        0.1487
     22 N         139.9916  145.6648  160.8144 N.ar    1  UNL1       -0.2476
     23 C         140.1446  144.6581  161.9158 C.ar    1  UNL1        0.0982
     24 C         140.4321  143.3723  162.6328 C.ar    1  UNL1        0.0589
     25 C         139.9747  144.5379  163.4588 C.ar    1  UNL1        0.1232
     26 N         139.7514  145.6999  162.5370 N.ar    1  UNL1       -0.1676
     27 C         140.8228  141.9466  162.8875 C.ar    1  UNL1        0.1066
     28 C         140.5765  142.1157  164.3575 C.ar    1  UNL1        0.1198
     29 N         140.8759  140.8092  165.0309 N.ar    1  UNL1       -0.2234
     30 C         141.3073  139.8328  163.9772 C.ar    1  UNL1        0.1639
     31 C         141.8747  138.1681  163.4408 C.ar    1  UNL1        0.0404
     32 C         142.2364  137.5424  162.1264 C.ar    1  UNL1        0.0240
     33 C         142.1636  138.3513  160.8653 C.ar    1  UNL1        0.1030
     34 N         141.7382  139.2923  161.9532 N.ar    1  UNL1       -0.1637
     35 N         141.2745  140.5357  162.6526 N.ar    1  UNL1       -0.2106
     36 H         143.0089  138.2858  154.6724 H       1  UNL1        0.1739
     37 H         140.2152  147.0127  156.1260 H       1  UNL1        0.1498
     38 C         142.5974  135.2800  154.3934 C.3     1  UNL1        0.2543
     39 O         143.5895  136.1339  155.1259 O.3     1  UNL1       -0.4553
@<TRIPOS>BOND
     1    38    39    1
     2    39     1    1
     3     1     2   ar
     4     2     3   ar
     5     3     4   ar
     6     4     5   ar
     7     5     6   ar
     8     6     7    1
     9     7     8    1
    10     8     9    2
    11     8    10    2
    12     8    11    1
    13    11    12   ar
    14    12    13   ar
    15    13    14   ar
    16    14    15   ar
    17    15    16   ar
    18    15    17    1
    19    17    18    2
    20    17    19   am
    21    19    20    1
    22    20    21    1
    23    21    22    1
    24    22    23   ar
    25    23    24   ar
    26    24    25   ar
    27    25    26   ar
    28    24    27    1
    29    27    28   ar
    30    28    29   ar
    31    29    30   ar
    32    30    31   ar
    33    31    32   ar
    34    32    33   ar
    35    33    34   ar
    36    34    35   ar
    37     6     1   ar
    38    16    11   ar
    39    26    22   ar
    40    35    27   ar
    41    33     4    1
    42    35    30   ar
    43     7    36    1
    44    19    37    1
@<TRIPOS>MOLECULE
*****
 39 44 0 0 0
SMALL
GASTEIGER

@<TRIPOS>ATOM
      1 C         143.7876  140.4243  161.9307 C.ar    1  UNL1        0.2400
      2 N         144.2904  139.0452  162.2390 N.ar    1  UNL1       -0.2090
      3 C         144.0593  137.9275  161.2655 C.ar    1  UNL1        0.1037
      4 C         143.3632  137.8422  159.8914 C.ar    1  UNL1        0.0400
      5 C         143.3292  139.2210  160.4811 C.ar    1  UNL1        0.0237
      6 C         143.0536  140.6859  160.6490 C.ar    1  UNL1        0.1179
      7 N         142.5663  142.0782  160.3766 N.pl3   1  UNL1       -0.2104
      8 S         141.9201  143.2469  159.6937 S.O2    1  UNL1        0.0737
      9 O         142.5292  143.5864  161.0217 O.2     1  UNL1       -0.1499
     10 O         141.7632  144.6883  160.0778 O.2     1  UNL1       -0.1499
     11 C         141.0120  144.0996  158.3591 C.ar    1  UNL1        0.1253
     12 C         140.7950  145.5577  158.6359 C.ar    1  UNL1        0.0202
     13 C         140.0643  146.4094  157.6407 C.ar    1  UNL1        0.0015
     14 C         139.5506  145.8030  156.3685 C.ar    1  UNL1        0.0046
     15 C         139.7676  144.3449  156.0917 C.ar    1  UNL1        0.0547
     16 C         140.4982  143.4932  157.0869 C.ar    1  UNL1        0.0247
     17 C         139.2390  143.7754  154.8086 C.2     1  UNL1        0.2459
     18 O         138.6264  145.0131  154.2230 O.2     1  UNL1       -0.2701
     19 N         138.9120  142.7986  153.7183 N.am    1  UNL1       -0.2989
     20 C         138.8221  141.5201  152.9389 C.3     1  UNL1        0.1161
     21 C         138.9790  140.0786  152.5549 C.3     1  UNL1        0.1487
     22 N         139.3657  138.6302  152.6078 N.ar    1  UNL1       -0.2476
     23 C         139.9403  137.3321  153.0921 C.ar    1  UNL1        0.0982
     24 C         140.6405  136.3247  153.9550 C.ar    1  UNL1        0.0589
     25 C         140.0779  135.8457  152.6497 C.ar    1  UNL1        0.1232
     26 N         139.4316  137.0144  151.9668 N.ar    1  UNL1       -0.1676
     27 C         141.3906  135.7172  155.1033 C.ar    1  UNL1        0.1066
     28 C         141.3749  134.3742  154.4355 C.ar    1  UNL1        0.1198
     29 N         142.0837  133.4025  155.3319 N.ar    1  UNL1       -0.2234
     30 C         142.5374  134.1450  156.5536 C.ar    1  UNL1        0.1639
     31 C         143.3724  134.2224  158.1900 C.ar    1  UNL1        0.0404
     32 C         143.6320  135.3011  159.1995 C.ar    1  UNL1        0.0240
     33 C         143.1518  136.6990  158.9436 C.ar    1  UNL1        0.1030
     34 N         142.7181  135.9151  157.7405 N.ar    1  UNL1       -0.1637
     35 N         142.1090  135.5756  156.4124 N.ar    1  UNL1       -0.2106
     36 H         142.8832  142.5238  161.1953 H       1  UNL1        0.1739
     37 H         138.4393  143.3999  153.0984 H       1  UNL1        0.1498
     38 C         145.4081  141.8468  163.3799 C.3     1  UNL1        0.2543
     39 O         144.0187  141.5419  162.9042 O.3     1  UNL1       -0.4553
@<TRIPOS>BOND
     1    38    39    1
     2    39     1    1
     3     1     2   ar
     4     2     3   ar
     5     3     4   ar
     6     4     5   ar
     7     5     6   ar
     8     6     7    1
     9     7     8    1
    10     8     9    2
    11     8    10    2
    12     8    11    1
    13    11    12   ar
    14    12    13   ar
    15    13    14   ar
    16    14    15   ar
    17    15    16   ar
    18    15    17    1
    19    17    18    2
    20    17    19   am
    21    19    20    1
    22    20    21    1
    23    21    22    1
    24    22    23   ar
    25    23    24   ar
    26    24    25   ar
    27    25    26   ar
    28    24    27    1
    29    27    28   ar
    30    28    29   ar
    31    29    30   ar
    32    30    31   ar
    33    31    32   ar
    34    32    33   ar
    35    33    34   ar
    36    34    35   ar
    37     6     1   ar
    38    16    11   ar
    39    26    22   ar
    40    35    27   ar
    41    33     4    1
    42    35    30   ar
    43     7    36    1
    44    19    37    1
@<TRIPOS>MOLECULE
*****
 39 44 0 0 0
SMALL
GASTEIGER

@<TRIPOS>ATOM
      1 C         142.7529  139.7340  162.2815 C.ar    1  UNL1        0.2400
      2 N         142.4748  141.0630  162.9191 N.ar    1  UNL1       -0.2090
      3 C         141.9758  142.2054  162.0848 C.ar    1  UNL1        0.1037
      4 C         141.6470  142.3621  160.5856 C.ar    1  UNL1        0.0400
      5 C         142.1258  140.9854  160.9399 C.ar    1  UNL1        0.0237
      6 C         142.5320  139.5474  160.8097 C.ar    1  UNL1        0.1179
      7 N         142.8214  138.2037  160.2090 N.pl3   1  UNL1       -0.2104
      8 S         142.9627  137.1000  159.2030 S.O2    1  UNL1        0.0737
      9 O         143.3452  136.6978  160.5965 O.2     1  UNL1       -0.1499
     10 O         143.4113  135.6733  159.3166 O.2     1  UNL1       -0.1499
     11 C         142.8787  136.3396  157.5454 C.ar    1  UNL1        0.1253
     12 C         143.3075  134.9023  157.5371 C.ar    1  UNL1        0.0202
     13 C         143.2992  134.1246  156.2545 C.ar    1  UNL1        0.0015
     14 C         142.8620  134.7842  154.9802 C.ar    1  UNL1        0.0046
     15 C         142.4332  136.2216  154.9886 C.ar    1  UNL1        0.0547
     16 C         142.4415  136.9992  156.2712 C.ar    1  UNL1        0.0247
     17 C         142.0029  136.8458  153.6943 C.2     1  UNL1        0.2459
     18 O         142.1833  135.6696  152.7809 O.2     1  UNL1       -0.2701
     19 N         141.5132  137.8570  152.7006 N.am    1  UNL1       -0.2989
     20 C         141.0171  139.1460  152.1153 C.3     1  UNL1        0.1161
     21 C         140.5685  140.5729  152.0017 C.3     1  UNL1        0.1487
     22 N         140.2159  141.9830  152.3722 N.ar    1  UNL1       -0.2476
     23 C         139.9976  143.2236  153.1867 C.ar    1  UNL1        0.0982
     24 C         139.9371  144.1602  154.3567 C.ar    1  UNL1        0.0589
     25 C         139.5246  144.6973  153.0183 C.ar    1  UNL1        0.1232
     26 N         139.6659  143.5936  152.0124 N.ar    1  UNL1       -0.1676
     27 C         140.0411  144.6913  155.7557 C.ar    1  UNL1        0.1066
     28 C         139.5538  146.0373  155.3075 C.ar    1  UNL1        0.1198
     29 N         139.5098  146.9373  156.5067 N.ar    1  UNL1       -0.2234
     30 C         139.9700  146.1476  157.6960 C.ar    1  UNL1        0.1639
     31 C         140.3555  145.9845  159.4865 C.ar    1  UNL1        0.0404
     32 C         140.8528  144.8782  160.3689 C.ar    1  UNL1        0.0240
     33 C         141.1473  143.5281  159.7852 C.ar    1  UNL1        0.1030
     34 N         140.6809  144.3573  158.6254 N.ar    1  UNL1       -0.1637
     35 N         140.2983  144.7595  157.2319 N.ar    1  UNL1       -0.2106
     36 H         143.1167  137.7252  161.0171 H       1  UNL1        0.1739
     37 H         141.5258  137.3036  151.8865 H       1  UNL1        0.1498
     38 C         143.4481  138.7708  164.5920 C.3     1  UNL1        0.2543
     39 O         143.2519  138.5917  163.1158 O.3     1  UNL1       -0.4553
@<TRIPOS>BOND
     1    38    39    1
     2    39     1    1
     3     1     2   ar
     4     2     3   ar
     5     3     4   ar
     6     4     5   ar
     7     5     6   ar
     8     6     7    1
     9     7     8    1
    10     8     9    2
    11     8    10    2
    12     8    11    1
    13    11    12   ar
    14    12    13   ar
    15    13    14   ar
    16    14    15   ar
    17    15    16   ar
    18    15    17    1
    19    17    18    2
    20    17    19   am
    21    19    20    1
    22    20    21    1
    23    21    22    1
    24    22    23   ar
    25    23    24   ar
    26    24    25   ar
    27    25    26   ar
    28    24    27    1
    29    27    28   ar
    30    28    29   ar
    31    29    30   ar
    32    30    31   ar
    33    31    32   ar
    34    32    33   ar
    35    33    34   ar
    36    34    35   ar
    37     6     1   ar
    38    16    11   ar
    39    26    22   ar
    40    35    27   ar
    41    33     4    1
    42    35    30   ar
    43     7    36    1
    44    19    37    1
@<TRIPOS>MOLECULE
*****
 39 44 0 0 0
SMALL
GASTEIGER

@<TRIPOS>ATOM
      1 C         141.8861  136.2893  155.5034 C.ar    1  UNL1        0.2400
      2 N         142.5923  135.4817  156.5518 N.ar    1  UNL1       -0.2090
      3 C         142.9348  136.1036  157.8732 C.ar    1  UNL1        0.1037
      4 C         142.7169  137.5073  158.4752 C.ar    1  UNL1        0.0400
      5 C         142.1795  137.3777  157.0808 C.ar    1  UNL1        0.0237
      6 C         141.5225  137.7187  155.7762 C.ar    1  UNL1        0.1179
      7 N         140.8170  138.4932  154.7028 N.pl3   1  UNL1       -0.2104
      8 S         140.1394  139.6175  153.9769 S.O2    1  UNL1        0.0737
      9 O         140.2292  138.3515  153.1775 O.2     1  UNL1       -0.1499
     10 O         139.5340  139.7246  152.6087 O.2     1  UNL1       -0.1499
     11 C         139.4880  141.3104  153.7698 C.ar    1  UNL1        0.1253
     12 C         138.8546  141.5352  152.4288 C.ar    1  UNL1        0.0202
     13 C         138.2674  142.8736  152.0917 C.ar    1  UNL1        0.0015
     14 C         138.3136  143.9872  153.0955 C.ar    1  UNL1        0.0046
     15 C         138.9470  143.7624  154.4365 C.ar    1  UNL1        0.0547
     16 C         139.5342  142.4240  154.7736 C.ar    1  UNL1        0.0247
     17 C         138.9737  144.9005  155.4132 C.2     1  UNL1        0.2459
     18 O         138.2820  145.9475  154.5915 O.2     1  UNL1       -0.2701
     19 N         139.2282  145.6940  156.6605 N.am    1  UNL1       -0.2989
     20 C         139.6828  146.0568  158.0432 C.3     1  UNL1        0.1161
     21 C         140.2882  145.9496  159.4114 C.3     1  UNL1        0.1487
     22 N         140.9790  145.3841  160.6169 N.ar    1  UNL1       -0.2476
     23 C         141.6801  144.4215  161.5289 C.ar    1  UNL1        0.0982
     24 C         142.3156  143.1663  162.0489 C.ar    1  UNL1        0.0589
     25 C         142.2957  144.3595  162.9576 C.ar    1  UNL1        0.1232
     26 N         141.6181  145.4837  162.2317 N.ar    1  UNL1       -0.1676
     27 C         142.8167  141.7542  162.1202 C.ar    1  UNL1        0.1066
     28 C         143.3226  141.9779  163.5145 C.ar    1  UNL1        0.1198
     29 N         143.9476  140.7004  163.9913 N.ar    1  UNL1       -0.2234
     30 C         143.8280  139.6873  162.8917 C.ar    1  UNL1        0.1639
     31 C         144.0989  138.0072  162.1952 C.ar    1  UNL1        0.0404
     32 C         143.7814  137.3340  160.8929 C.ar    1  UNL1        0.0240
     33 C         143.0763  138.0934  159.8084 C.ar    1  UNL1        0.1030
     34 N         143.2189  139.0725  160.9359 N.ar    1  UNL1       -0.1637
     35 N         143.1291  140.3385  161.7353 N.ar    1  UNL1       -0.2106
     36 H         140.7612  137.7961  154.0099 H       1  UNL1        0.1739
     37 H         138.8291  146.5525  156.3906 H       1  UNL1        0.1498
     38 C         141.4685  134.1748  154.0527 C.3     1  UNL1        0.2543
     39 O         141.5436  135.6672  154.1821 O.3     1  UNL1       -0.4553
@<TRIPOS>BOND
     1    38    39    1
     2    39     1    1
     3     1     2   ar
     4     2     3   ar
     5     3     4   ar
     6     4     5   ar
     7     5     6   ar
     8     6     7    1
     9     7     8    1
    10     8     9    2
    11     8    10    2
    12     8    11    1
    13    11    12   ar
    14    12    13   ar
    15    13    14   ar
    16    14    15   ar
    17    15    16   ar
    18    15    17    1
    19    17    18    2
    20    17    19   am
    21    19    20    1
    22    20    21    1
    23    21    22    1
    24    22    23   ar
    25    23    24   ar
    26    24    25   ar
    27    25    26   ar
    28    24    27    1
    29    27    28   ar
    30    28    29   ar
    31    29    30   ar
    32    30    31   ar
    33    31    32   ar
    34    32    33   ar
    35    33    34   ar
    36    34    35   ar
    37     6     1   ar
    38    16    11   ar
    39    26    22   ar
    40    35    27   ar
    41    33     4    1
    42    35    30   ar
    43     7    36    1
    44    19    37    1
