@<TRIPOS>MOLECULE
*****
 25 26 0 0 0
SMALL
GASTEIGER

@<TRIPOS>ATOM
      1 C         139.9728  146.0926  161.9571 C.3     1  UNL1        0.0897
      2 N         139.3004  142.5561  164.6573 N.3     1  UNL1       -0.2727
      3 C         140.5401  143.3875  164.8049 C.3     1  UNL1        0.0721
      4 C         140.7643  144.5663  163.9049 C.3     1  UNL1        0.0191
      5 C         139.7487  144.9138  162.8572 C.3     1  UNL1        0.0224
      6 C         138.5089  144.0824  162.7095 C.3     1  UNL1        0.0191
      7 C         138.2848  142.9036  163.6096 C.3     1  UNL1        0.0721
      8 C         139.0762  141.3773  165.5574 C.3     1  UNL1        0.0721
      9 C         138.1034  140.3062  165.1622 C.3     1  UNL1        0.0173
     10 C         138.1255  138.8692  166.7226 C.3     1  UNL1        0.0000
     11 C         138.4941  138.8618  165.2686 C.3     1  UNL1        0.0013
     12 C         138.8626  138.8544  163.8146 C.3     1  UNL1        0.0000
     13 C         138.8847  137.4175  165.3750 C.3     1  UNL1        0.0000
     14 N         139.6304  145.9993  160.4997 N.am    1  UNL1       -0.3009
     15 C         140.5976  145.3708  159.5408 C.2     1  UNL1        0.2459
     16 O         141.9072  144.8357  160.0392 O.2     1  UNL1       -0.2701
     17 H         138.7708  146.3505  160.1726 H       1  UNL1        0.1497
     18 C         140.2551  145.2775  158.0833 C.ar    1  UNL1        0.0550
     19 C         140.0345  146.5270  157.2832 C.ar    1  UNL1        0.0160
     20 C         139.6920  146.4337  155.8258 C.ar    1  UNL1        0.0587
     21 CL        139.4715  147.6831  155.0257 Cl      1  UNL1       -0.0822
     22 C         139.5701  145.0909  155.1685 C.ar    1  UNL1        0.0228
     23 C         139.7907  143.8414  155.9687 C.ar    1  UNL1        0.0587
     24 CL        139.6688  142.4986  155.3114 Cl      1  UNL1       -0.0822
     25 C         140.1331  143.9347  157.4260 C.ar    1  UNL1        0.0160
@<TRIPOS>BOND
     1    10    11    1
     2    11    12    1
     3    11    13    1
     4    11     9    1
     5     9     8    1
     6     8     2    1
     7     2     3    1
     8     3     4    1
     9     4     5    1
    10     5     1    1
    11     1    14    1
    12    14    15   am
    13    15    16    2
    14    15    18    1
    15    18    19   ar
    16    19    20   ar
    17    20    21    1
    18    20    22   ar
    19    22    23   ar
    20    23    24    1
    21    23    25   ar
    22     5     6    1
    23     6     7    1
    24     7     2    1
    25    25    18   ar
    26    14    17    1
@<TRIPOS>MOLECULE
*****
 25 26 0 0 0
SMALL
GASTEIGER

@<TRIPOS>ATOM
      1 C         142.3862  138.2506  158.0998 C.3     1  UNL1        0.0897
      2 N         139.7219  138.6230  161.7071 N.3     1  UNL1       -0.2727
      3 C         139.1382  138.7292  160.3295 C.3     1  UNL1        0.0721
      4 C         140.0263  138.6051  159.1270 C.3     1  UNL1        0.0191
      5 C         141.4981  138.3747  159.3022 C.3     1  UNL1        0.0224
      6 C         142.0818  138.2686  160.6799 C.3     1  UNL1        0.0191
      7 C         141.1937  138.3927  161.8823 C.3     1  UNL1        0.0721
      8 C         138.8338  138.7472  162.9096 C.3     1  UNL1        0.0721
      9 C         139.4353  138.9523  164.2682 C.3     1  UNL1        0.0173
     10 C         138.8084  137.2986  165.4397 C.3     1  UNL1        0.0000
     11 C         138.5906  138.7817  165.4960 C.3     1  UNL1        0.0013
     12 C         138.3727  140.2647  165.5523 C.3     1  UNL1        0.0000
     13 C         137.7459  138.6110  166.7237 C.3     1  UNL1        0.0000
     14 N         142.9986  136.9259  157.7533 N.am    1  UNL1       -0.3009
     15 C         142.3002  136.0034  156.7988 C.2     1  UNL1        0.2459
     16 O         140.9892  136.4055  156.1908 O.2     1  UNL1       -0.2701
     17 H         143.8591  136.6620  158.1524 H       1  UNL1        0.1497
     18 C         142.9127  134.6787  156.4524 C.ar    1  UNL1        0.0550
     19 C         142.5966  134.0268  155.1390 C.ar    1  UNL1        0.0160
     20 C         143.2092  132.7020  154.7925 C.ar    1  UNL1        0.0587
     21 CL        142.8931  132.0501  153.4791 Cl      1  UNL1       -0.0822
     22 C         144.1378  132.0293  155.7595 C.ar    1  UNL1        0.0228
     23 C         144.4539  132.6812  157.0729 C.ar    1  UNL1        0.0587
     24 CL        145.3825  132.0085  158.0399 Cl      1  UNL1       -0.0822
     25 C         143.8413  134.0059  157.4193 C.ar    1  UNL1        0.0160
@<TRIPOS>BOND
     1    10    11    1
     2    11    12    1
     3    11    13    1
     4    11     9    1
     5     9     8    1
     6     8     2    1
     7     2     3    1
     8     3     4    1
     9     4     5    1
    10     5     1    1
    11     1    14    1
    12    14    15   am
    13    15    16    2
    14    15    18    1
    15    18    19   ar
    16    19    20   ar
    17    20    21    1
    18    20    22   ar
    19    22    23   ar
    20    23    24    1
    21    23    25   ar
    22     5     6    1
    23     6     7    1
    24     7     2    1
    25    25    18   ar
    26    14    17    1
@<TRIPOS>MOLECULE
*****
 25 26 0 0 0
SMALL
GASTEIGER

@<TRIPOS>ATOM
      1 C         139.9496  145.2731  161.9877 C.3     1  UNL1        0.0897
      2 N         138.6672  141.2294  163.4888 N.3     1  UNL1       -0.2727
      3 C         137.6511  142.1755  162.9211 C.3     1  UNL1        0.0721
      4 C         138.0786  143.5234  162.4207 C.3     1  UNL1        0.0191
      5 C         139.5221  143.9252  162.4881 C.3     1  UNL1        0.0224
      6 C         140.5382  142.9791  163.0559 C.3     1  UNL1        0.0191
      7 C         140.1107  141.6312  163.5562 C.3     1  UNL1        0.0721
      8 C         138.2397  139.8815  163.9892 C.3     1  UNL1        0.0721
      9 C         138.6149  138.6451  163.2274 C.3     1  UNL1        0.0173
     10 C         139.1798  137.6463  165.0116 C.3     1  UNL1        0.0000
     11 C         139.7980  137.8294  163.6573 C.3     1  UNL1        0.0013
     12 C         140.4163  138.0125  162.3029 C.3     1  UNL1        0.0000
     13 C         140.9812  137.0137  164.0871 C.3     1  UNL1        0.0000
     14 N         139.9259  145.5695  160.5175 N.am    1  UNL1       -0.3009
     15 C         141.0811  145.1624  159.6515 C.2     1  UNL1        0.2459
     16 O         142.2600  144.4589  160.2558 O.2     1  UNL1       -0.2701
     17 H         139.1521  146.0312  160.1208 H       1  UNL1        0.1497
     18 C         141.0573  145.4588  158.1813 C.ar    1  UNL1        0.0550
     19 C         142.1247  144.9020  157.2866 C.ar    1  UNL1        0.0160
     20 C         142.1009  145.1984  155.8163 C.ar    1  UNL1        0.0587
     21 CL        143.1683  144.6416  154.9216 Cl      1  UNL1       -0.0822
     22 C         141.0096  146.0516  155.2408 C.ar    1  UNL1        0.0228
     23 C         139.9422  146.6084  156.1356 C.ar    1  UNL1        0.0587
     24 CL        138.8509  147.4616  155.5601 Cl      1  UNL1       -0.0822
     25 C         139.9660  146.3120  157.6058 C.ar    1  UNL1        0.0160
@<TRIPOS>BOND
     1    10    11    1
     2    11    12    1
     3    11    13    1
     4    11     9    1
     5     9     8    1
     6     8     2    1
     7     2     3    1
     8     3     4    1
     9     4     5    1
    10     5     1    1
    11     1    14    1
    12    14    15   am
    13    15    16    2
    14    15    18    1
    15    18    19   ar
    16    19    20   ar
    17    20    21    1
    18    20    22   ar
    19    22    23   ar
    20    23    24    1
    21    23    25   ar
    22     5     6    1
    23     6     7    1
    24     7     2    1
    25    25    18   ar
    26    14    17    1
@<TRIPOS>MOLECULE
*****
 25 26 0 0 0
SMALL
GASTEIGER

@<TRIPOS>ATOM
      1 C         139.9650  146.1431  161.8308 C.3     1  UNL1        0.0897
      2 N         139.3039  142.6415  164.5788 N.3     1  UNL1       -0.2727
      3 C         140.6876  143.1831  164.3737 C.3     1  UNL1        0.0721
      4 C         140.9079  144.3503  163.4577 C.3     1  UNL1        0.0191
      5 C         139.7446  144.9759  162.7468 C.3     1  UNL1        0.0224
      6 C         138.3610  144.4343  162.9520 C.3     1  UNL1        0.0191
      7 C         138.1406  143.2671  163.8680 C.3     1  UNL1        0.0721
      8 C         139.0836  141.4743  165.4948 C.3     1  UNL1        0.0721
      9 C         138.1032  140.4023  165.1211 C.3     1  UNL1        0.0173
     10 C         138.2576  138.9500  166.6597 C.3     1  UNL1        0.0000
     11 C         138.5101  138.9598  165.1811 C.3     1  UNL1        0.0013
     12 C         138.7627  138.9695  163.7025 C.3     1  UNL1        0.0000
     13 C         138.9171  137.5173  165.2411 C.3     1  UNL1        0.0000
     14 N         139.6073  146.0345  160.3782 N.am    1  UNL1       -0.3009
     15 C         140.5746  145.4182  159.4116 C.2     1  UNL1        0.2459
     16 O         141.8997  144.9104  159.8976 O.2     1  UNL1       -0.2701
     17 H         138.7375  146.3678  160.0592 H       1  UNL1        0.1497
     18 C         140.2168  145.3096  157.9589 C.ar    1  UNL1        0.0550
     19 C         140.0590  143.9597  157.3242 C.ar    1  UNL1        0.0160
     20 C         139.7012  143.8511  155.8715 C.ar    1  UNL1        0.0587
     21 CL        139.5433  142.5012  155.2369 Cl      1  UNL1       -0.0822
     22 C         139.5012  145.0924  155.0536 C.ar    1  UNL1        0.0228
     23 C         139.6591  146.4424  155.6883 C.ar    1  UNL1        0.0587
     24 CL        139.4591  147.6837  154.8704 Cl      1  UNL1       -0.0822
     25 C         140.0169  146.5509  157.1409 C.ar    1  UNL1        0.0160
@<TRIPOS>BOND
     1    10    11    1
     2    11    12    1
     3    11    13    1
     4    11     9    1
     5     9     8    1
     6     8     2    1
     7     2     3    1
     8     3     4    1
     9     4     5    1
    10     5     1    1
    11     1    14    1
    12    14    15   am
    13    15    16    2
    14    15    18    1
    15    18    19   ar
    16    19    20   ar
    17    20    21    1
    18    20    22   ar
    19    22    23   ar
    20    23    24    1
    21    23    25   ar
    22     5     6    1
    23     6     7    1
    24     7     2    1
    25    25    18   ar
    26    14    17    1
@<TRIPOS>MOLECULE
*****
 25 26 0 0 0
SMALL
GASTEIGER

@<TRIPOS>ATOM
      1 C         142.6335  138.1751  158.0216 C.3     1  UNL1        0.0897
      2 N         144.1813  139.8356  161.9070 N.3     1  UNL1       -0.2727
      3 C         144.0039  140.7391  160.7229 C.3     1  UNL1        0.0721
      4 C         143.4880  140.1856  159.4278 C.3     1  UNL1        0.0191
      5 C         143.1494  138.7286  159.3167 C.3     1  UNL1        0.0224
      6 C         143.3268  137.8251  160.5008 C.3     1  UNL1        0.0191
      7 C         143.8427  138.3786  161.7960 C.3     1  UNL1        0.0721
      8 C         144.6972  140.3891  163.2022 C.3     1  UNL1        0.0721
      9 C         144.5959  139.5761  164.4586 C.3     1  UNL1        0.0173
     10 C         143.6406  141.3431  165.1407 C.3     1  UNL1        0.0000
     11 C         143.5284  139.8833  165.4667 C.3     1  UNL1        0.0013
     12 C         143.4161  138.4234  165.7926 C.3     1  UNL1        0.0000
     13 C         142.4609  140.1904  166.4747 C.3     1  UNL1        0.0000
     14 N         142.4756  136.6935  157.8490 N.am    1  UNL1       -0.3009
     15 C         143.2973  135.9657  156.8267 C.2     1  UNL1        0.2459
     16 O         144.2768  136.7195  155.9769 O.2     1  UNL1       -0.2701
     17 H         141.8327  136.1986  158.4068 H       1  UNL1        0.1497
     18 C         143.1394  134.4840  156.6542 C.ar    1  UNL1        0.0550
     19 C         142.0618  133.9434  155.7618 C.ar    1  UNL1        0.0160
     20 C         141.9039  132.4617  155.5892 C.ar    1  UNL1        0.0587
     21 CL        140.8262  131.9212  154.6968 Cl      1  UNL1       -0.0822
     22 C         142.8237  131.5206  156.3092 C.ar    1  UNL1        0.0228
     23 C         143.9014  132.0612  157.2016 C.ar    1  UNL1        0.0587
     24 CL        144.8212  131.1202  157.9215 Cl      1  UNL1       -0.0822
     25 C         144.0592  133.5429  157.3741 C.ar    1  UNL1        0.0160
@<TRIPOS>BOND
     1    10    11    1
     2    11    12    1
     3    11    13    1
     4    11     9    1
     5     9     8    1
     6     8     2    1
     7     2     3    1
     8     3     4    1
     9     4     5    1
    10     5     1    1
    11     1    14    1
    12    14    15   am
    13    15    16    2
    14    15    18    1
    15    18    19   ar
    16    19    20   ar
    17    20    21    1
    18    20    22   ar
    19    22    23   ar
    20    23    24    1
    21    23    25   ar
    22     5     6    1
    23     6     7    1
    24     7     2    1
    25    25    18   ar
    26    14    17    1
@<TRIPOS>MOLECULE
*****
 25 26 0 0 0
SMALL
GASTEIGER

@<TRIPOS>ATOM
      1 C         140.2755  145.9006  162.2200 C.3     1  UNL1        0.0897
      2 N         139.9481  142.5641  165.2218 N.3     1  UNL1       -0.2727
      3 C         139.1208  143.8045  165.3860 C.3     1  UNL1        0.0721
      4 C         139.2300  144.9167  164.3854 C.3     1  UNL1        0.0191
      5 C         140.1663  144.7884  163.2206 C.3     1  UNL1        0.0224
      6 C         140.9936  143.5480  163.0565 C.3     1  UNL1        0.0191
      7 C         140.8844  142.4358  164.0571 C.3     1  UNL1        0.0721
      8 C         139.8389  141.4519  166.2224 C.3     1  UNL1        0.0721
      9 C         140.7370  141.4331  167.4237 C.3     1  UNL1        0.0173
     10 C         139.5775  140.2473  168.7464 C.3     1  UNL1        0.0000
     11 C         140.1602  141.6286  168.7945 C.3     1  UNL1        0.0013
     12 C         140.7429  143.0100  168.8426 C.3     1  UNL1        0.0000
     13 C         139.5834  141.8242  170.1653 C.3     1  UNL1        0.0000
     14 N         139.7596  145.7075  160.8249 N.am    1  UNL1       -0.3009
     15 C         140.6865  145.2457  159.7397 C.2     1  UNL1        0.2459
     16 O         142.1292  144.9769  160.0497 O.2     1  UNL1       -0.2701
     17 H         138.8127  145.8839  160.6214 H       1  UNL1        0.1497
     18 C         140.1705  145.0526  158.3445 C.ar    1  UNL1        0.0550
     19 C         140.1962  146.1933  157.3708 C.ar    1  UNL1        0.0160
     20 C         139.6803  146.0003  155.9755 C.ar    1  UNL1        0.0587
     21 CL        139.7060  147.1410  155.0019 Cl      1  UNL1       -0.0822
     22 C         139.1386  144.6665  155.5541 C.ar    1  UNL1        0.0228
     23 C         139.1130  143.5258  156.5278 C.ar    1  UNL1        0.0587
     24 CL        138.5713  142.1920  156.1064 Cl      1  UNL1       -0.0822
     25 C         139.6289  143.7188  157.9230 C.ar    1  UNL1        0.0160
@<TRIPOS>BOND
     1    10    11    1
     2    11    12    1
     3    11    13    1
     4    11     9    1
     5     9     8    1
     6     8     2    1
     7     2     3    1
     8     3     4    1
     9     4     5    1
    10     5     1    1
    11     1    14    1
    12    14    15   am
    13    15    16    2
    14    15    18    1
    15    18    19   ar
    16    19    20   ar
    17    20    21    1
    18    20    22   ar
    19    22    23   ar
    20    23    24    1
    21    23    25   ar
    22     5     6    1
    23     6     7    1
    24     7     2    1
    25    25    18   ar
    26    14    17    1
@<TRIPOS>MOLECULE
*****
 25 26 0 0 0
SMALL
GASTEIGER

@<TRIPOS>ATOM
      1 C         141.7502  145.2175  163.0530 C.3     1  UNL1        0.0897
      2 N         139.9440  141.7457  165.2743 N.3     1  UNL1       -0.2727
      3 C         141.2429  141.5747  164.5439 C.3     1  UNL1        0.0721
      4 C         141.8450  142.7320  163.8034 C.3     1  UNL1        0.0191
      5 C         141.1482  144.0602  163.7934 C.3     1  UNL1        0.0224
      6 C         139.8493  144.2312  164.5239 C.3     1  UNL1        0.0191
      7 C         139.2472  143.0739  165.2643 C.3     1  UNL1        0.0721
      8 C         139.3420  140.5884  166.0147 C.3     1  UNL1        0.0721
      9 C         138.2531  139.7760  165.3789 C.3     1  UNL1        0.0173
     10 C         138.1365  139.8481  163.2620 C.3     1  UNL1        0.0000
     11 C         138.5795  138.8251  164.2657 C.3     1  UNL1        0.0013
     12 C         139.0224  137.8021  165.2693 C.3     1  UNL1        0.0000
     13 C         138.9058  137.8742  163.1524 C.3     1  UNL1        0.0000
     14 N         142.0823  145.0848  161.5963 N.am    1  UNL1       -0.3009
     15 C         140.9914  145.1536  160.5691 C.2     1  UNL1        0.2459
     16 O         139.5684  145.3550  160.9985 O.2     1  UNL1       -0.2701
     17 H         143.0163  144.9526  161.3144 H       1  UNL1        0.1497
     18 C         141.3235  145.0209  159.1123 C.ar    1  UNL1        0.0550
     19 C         140.6438  145.9002  158.1049 C.ar    1  UNL1        0.0160
     20 C         140.9760  145.7676  156.6482 C.ar    1  UNL1        0.0587
     21 CL        140.2962  146.6469  155.6408 Cl      1  UNL1       -0.0822
     22 C         141.9878  144.7556  156.1988 C.ar    1  UNL1        0.0228
     23 C         142.6676  143.8762  157.2062 C.ar    1  UNL1        0.0587
     24 CL        143.6795  142.8642  156.7568 Cl      1  UNL1       -0.0822
     25 C         142.3354  144.0089  158.6629 C.ar    1  UNL1        0.0160
@<TRIPOS>BOND
     1    10    11    1
     2    11    12    1
     3    11    13    1
     4    11     9    1
     5     9     8    1
     6     8     2    1
     7     2     3    1
     8     3     4    1
     9     4     5    1
    10     5     1    1
    11     1    14    1
    12    14    15   am
    13    15    16    2
    14    15    18    1
    15    18    19   ar
    16    19    20   ar
    17    20    21    1
    18    20    22   ar
    19    22    23   ar
    20    23    24    1
    21    23    25   ar
    22     5     6    1
    23     6     7    1
    24     7     2    1
    25    25    18   ar
    26    14    17    1
@<TRIPOS>MOLECULE
*****
 25 26 0 0 0
SMALL
GASTEIGER

@<TRIPOS>ATOM
      1 C         142.5527  138.3344  158.5621 C.3     1  UNL1        0.0897
      2 N         139.9835  138.0483  162.2454 N.3     1  UNL1       -0.2727
      3 C         141.4430  137.7106  162.3210 C.3     1  UNL1        0.0721
      4 C         142.2994  137.8060  161.0932 C.3     1  UNL1        0.0191
      5 C         141.6963  138.2390  159.7898 C.3     1  UNL1        0.0224
      6 C         140.2368  138.5767  159.7143 C.3     1  UNL1        0.0191
      7 C         139.3804  138.4813  160.9421 C.3     1  UNL1        0.0721
      8 C         139.1271  137.9529  163.4732 C.3     1  UNL1        0.0721
      9 C         139.7645  137.7956  164.8219 C.3     1  UNL1        0.0173
     10 C         141.1599  139.1163  165.7210 C.3     1  UNL1        0.0000
     11 C         139.6784  138.9063  165.8263 C.3     1  UNL1        0.0013
     12 C         138.1969  138.6963  165.9316 C.3     1  UNL1        0.0000
     13 C         139.5923  140.0170  166.8307 C.3     1  UNL1        0.0000
     14 N         142.9370  137.0905  157.8171 N.am    1  UNL1       -0.3009
     15 C         141.9871  136.4864  156.8257 C.2     1  UNL1        0.2459
     16 O         140.6531  137.1263  156.5792 O.2     1  UNL1       -0.2701
     17 H         143.8125  136.6705  157.9790 H       1  UNL1        0.1497
     18 C         142.3714  135.2424  156.0808 C.ar    1  UNL1        0.0550
     19 C         143.4436  134.3445  156.6231 C.ar    1  UNL1        0.0160
     20 C         143.8279  133.1005  155.8782 C.ar    1  UNL1        0.0587
     21 CL        144.9001  132.2026  156.4205 Cl      1  UNL1       -0.0822
     22 C         143.1400  132.7545  154.5909 C.ar    1  UNL1        0.0228
     23 C         142.0677  133.6524  154.0486 C.ar    1  UNL1        0.0587
     24 CL        141.3798  133.3064  152.7614 Cl      1  UNL1       -0.0822
     25 C         141.6835  134.8964  154.7935 C.ar    1  UNL1        0.0160
@<TRIPOS>BOND
     1    10    11    1
     2    11    12    1
     3    11    13    1
     4    11     9    1
     5     9     8    1
     6     8     2    1
     7     2     3    1
     8     3     4    1
     9     4     5    1
    10     5     1    1
    11     1    14    1
    12    14    15   am
    13    15    16    2
    14    15    18    1
    15    18    19   ar
    16    19    20   ar
    17    20    21    1
    18    20    22   ar
    19    22    23   ar
    20    23    24    1
    21    23    25   ar
    22     5     6    1
    23     6     7    1
    24     7     2    1
    25    25    18   ar
    26    14    17    1
@<TRIPOS>MOLECULE
*****
 25 26 0 0 0
SMALL
GASTEIGER

@<TRIPOS>ATOM
      1 C         140.3246  145.9708  162.2769 C.3     1  UNL1        0.0897
      2 N         140.3716  142.6415  165.3040 N.3     1  UNL1       -0.2727
      3 C         141.3978  142.6755  164.2106 C.3     1  UNL1        0.0721
      4 C         141.3822  143.7853  163.2016 C.3     1  UNL1        0.0191
      5 C         140.3403  144.8610  163.2859 C.3     1  UNL1        0.0224
      6 C         139.3140  144.8270  164.3794 C.3     1  UNL1        0.0191
      7 C         139.3297  143.7173  165.3884 C.3     1  UNL1        0.0721
      8 C         140.3872  141.5318  166.3131 C.3     1  UNL1        0.0721
      9 C         140.9962  141.7562  167.6654 C.3     1  UNL1        0.0173
     10 C         139.8025  140.2083  168.4895 C.3     1  UNL1        0.0000
     11 C         140.1573  141.6068  168.8999 C.3     1  UNL1        0.0013
     12 C         140.5121  143.0052  169.3103 C.3     1  UNL1        0.0000
     13 C         139.3184  141.4573  170.1343 C.3     1  UNL1        0.0000
     14 N         139.7676  145.7295  160.9052 N.am    1  UNL1       -0.3009
     15 C         140.6715  145.2745  159.7980 C.2     1  UNL1        0.2459
     16 O         142.1325  145.0608  160.0625 O.2     1  UNL1       -0.2701
     17 H         138.8087  145.8698  160.7316 H       1  UNL1        0.1497
     18 C         140.1145  145.0332  158.4263 C.ar    1  UNL1        0.0550
     19 C         139.5348  143.6946  158.0770 C.ar    1  UNL1        0.0160
     20 C         138.9778  143.4533  156.7053 C.ar    1  UNL1        0.0587
     21 CL        138.3981  142.1146  156.3560 Cl      1  UNL1       -0.0822
     22 C         139.0004  144.5507  155.6829 C.ar    1  UNL1        0.0228
     23 C         139.5800  145.8894  156.0323 C.ar    1  UNL1        0.0587
     24 CL        139.6026  146.9867  155.0099 Cl      1  UNL1       -0.0822
     25 C         140.1371  146.1306  157.4040 C.ar    1  UNL1        0.0160
@<TRIPOS>BOND
     1    10    11    1
     2    11    12    1
     3    11    13    1
     4    11     9    1
     5     9     8    1
     6     8     2    1
     7     2     3    1
     8     3     4    1
     9     4     5    1
    10     5     1    1
    11     1    14    1
    12    14    15   am
    13    15    16    2
    14    15    18    1
    15    18    19   ar
    16    19    20   ar
    17    20    21    1
    18    20    22   ar
    19    22    23   ar
    20    23    24    1
    21    23    25   ar
    22     5     6    1
    23     6     7    1
    24     7     2    1
    25    25    18   ar
    26    14    17    1
