@<TRIPOS>MOLECULE
*****
 38 42 0 0 0
SMALL
GASTEIGER

@<TRIPOS>ATOM
      1 C         140.5500  144.2857  158.4614 C.ar    1  UNL1        0.1318
      2 C         142.0298  144.0432  158.4231 C.ar    1  UNL1        0.0358
      3 C         142.6829  143.2210  159.4943 C.ar    1  UNL1        0.0221
      4 C         141.8564  142.6413  160.6036 C.ar    1  UNL1        0.0861
      5 C         140.3766  142.8838  160.6419 C.ar    1  UNL1        0.1178
      6 N         139.7235  143.7060  159.5708 N.ar    1  UNL1       -0.2276
      7 N         137.5239  145.7288  154.3820 N.3     1  UNL1       -0.3205
      8 C         138.5058  145.7712  155.5152 C.3     1  UNL1        0.0766
      9 C         138.8887  144.6173  156.3937 C.3     1  UNL1        0.1079
     10 N         139.8968  145.1079  157.3903 N.pl3   1  UNL1       -0.2915
     11 C         140.1369  146.5651  157.1276 C.3     1  UNL1        0.0980
     12 C         139.2773  146.9750  155.9688 C.3     1  UNL1        0.0602
     13 H         137.1474  144.7849  154.2936 H       1  UNL1        0.1189
     14 H         137.9936  145.9901  153.5152 H       1  UNL1        0.1189
     15 C         139.2022  148.3478  155.3688 C.ar    1  UNL1        0.0103
     16 C         139.7429  148.5950  153.9917 C.ar    1  UNL1        0.0300
     17 C         139.6679  149.9678  153.3918 C.ar    1  UNL1        0.1672
     18 F         140.2086  150.2150  152.0146 F       1  UNL1       -0.2018
     19 C         139.0521  151.0932  154.1689 C.ar    1  UNL1        0.1696
     20 F         138.9771  152.4660  153.5690 F       1  UNL1       -0.2017
     21 C         138.5113  150.8460  155.5461 C.ar    1  UNL1        0.0612
     22 C         138.5864  149.4733  156.1460 C.ar    1  UNL1        0.1386
     23 F         138.0457  149.2260  157.5232 F       1  UNL1       -0.2044
     24 N         142.5096  141.8191  161.6748 N.ar    1  UNL1       -0.2714
     25 C         142.8974  140.3970  161.3970 C.ar    1  UNL1        0.0861
     26 C         143.5506  139.5748  162.4681 C.ar    1  UNL1        0.0561
     27 C         143.8161  140.1747  163.8171 C.ar    1  UNL1        0.1453
     28 C         143.4283  141.5969  164.0948 C.ar    1  UNL1        0.0980
     29 C         142.7751  142.4191  163.0237 C.ar    1  UNL1        0.2679
     30 O         142.3873  143.8413  163.3015 O.2     1  UNL1       -0.2665
     31 O         144.4693  139.3526  164.8882 O.3     1  UNL1       -0.4704
     32 C         143.6283  138.5409  165.8283 C.3     1  UNL1        0.2320
     33 C         142.1335  138.5598  165.7040 C.ar    1  UNL1        0.0212
     34 C         141.4441  137.5860  164.7949 C.ar    1  UNL1       -0.0007
     35 C         139.9494  137.6049  164.6707 C.ar    1  UNL1       -0.0002
     36 C         139.1441  138.5976  165.4556 C.ar    1  UNL1       -0.0000
     37 C         139.8335  139.5713  166.3648 C.ar    1  UNL1       -0.0002
     38 C         141.3282  139.5524  166.4890 C.ar    1  UNL1       -0.0007
@<TRIPOS>BOND
     1     8     7    1
     2     8     9    1
     3     9    10    1
     4    10     1    1
     5     1     2   ar
     6     2     3   ar
     7     3     4   ar
     8     4    24    1
     9    24    25   ar
    10    25    26   ar
    11    26    27   ar
    12    27    31    1
    13    31    32    1
    14    32    33    1
    15    33    34   ar
    16    34    35   ar
    17    35    36   ar
    18    36    37   ar
    19    37    38   ar
    20    27    28   ar
    21    28    29   ar
    22    29    30    2
    23     4     5   ar
    24     5     6   ar
    25    10    11    1
    26    11    12    1
    27    12    15    1
    28    15    16   ar
    29    16    17   ar
    30    17    18    1
    31    17    19   ar
    32    19    20    1
    33    19    21   ar
    34    21    22   ar
    35    22    23    1
    36    12     8    1
    37    22    15   ar
    38     6     1   ar
    39    29    24   ar
    40    38    33   ar
    41     7    13    1
    42     7    14    1
@<TRIPOS>MOLECULE
*****
 38 42 0 0 0
SMALL
GASTEIGER

@<TRIPOS>ATOM
      1 C         140.3814  144.2571  158.9434 C.ar    1  UNL1        0.1318
      2 C         141.8434  144.0189  159.1797 C.ar    1  UNL1        0.0358
      3 C         142.3012  143.3685  160.4515 C.ar    1  UNL1        0.0221
      4 C         141.2971  142.9564  161.4868 C.ar    1  UNL1        0.0861
      5 C         139.8352  143.1946  161.2504 C.ar    1  UNL1        0.1178
      6 N         139.3773  143.8450  159.9787 N.ar    1  UNL1       -0.2276
      7 N         138.1515  145.0343  154.2206 N.3     1  UNL1       -0.3205
      8 C         138.8985  145.2647  155.5007 C.3     1  UNL1        0.0766
      9 C         139.1361  144.2485  156.5781 C.3     1  UNL1        0.1079
     10 N         139.9235  144.9075  157.6716 N.pl3   1  UNL1       -0.2915
     11 C         140.1726  146.3311  157.2700 C.3     1  UNL1        0.0980
     12 C         139.5392  146.5519  155.9284 C.3     1  UNL1        0.0602
     13 H         137.8225  144.0694  154.1879 H       1  UNL1        0.1189
     14 H         138.7709  145.2093  153.4293 H       1  UNL1        0.1189
     15 C         139.5453  147.8346  155.1508 C.ar    1  UNL1        0.0103
     16 C         138.8294  149.0394  155.6858 C.ar    1  UNL1        0.0300
     17 C         138.8355  150.3221  154.9082 C.ar    1  UNL1        0.1672
     18 F         138.1197  151.5268  155.4432 F       1  UNL1       -0.2018
     19 C         139.5574  150.4001  153.5958 C.ar    1  UNL1        0.1696
     20 F         139.5635  151.6828  152.8182 F       1  UNL1       -0.2017
     21 C         140.2733  149.1953  153.0607 C.ar    1  UNL1        0.0612
     22 C         140.2672  147.9127  153.8383 C.ar    1  UNL1        0.1386
     23 F         140.9831  146.7078  153.3033 F       1  UNL1       -0.2044
     24 N         141.7550  142.3060  162.7586 N.ar    1  UNL1       -0.2714
     25 C         141.8956  140.8143  162.8297 C.ar    1  UNL1        0.0861
     26 C         142.3535  140.1639  164.1015 C.ar    1  UNL1        0.0561
     27 C         142.6708  141.0052  165.3021 C.ar    1  UNL1        0.1453
     28 C         142.5303  142.4970  165.2309 C.ar    1  UNL1        0.0980
     29 C         142.0724  143.1473  163.9592 C.ar    1  UNL1        0.2679
     30 O         141.9318  144.6391  163.8880 O.2     1  UNL1       -0.2665
     31 O         143.1287  140.3549  166.5739 O.3     1  UNL1       -0.4704
     32 C         142.1237  139.7681  167.5202 C.3     1  UNL1        0.2320
     33 C         141.3581  140.6619  168.4502 C.ar    1  UNL1        0.0212
     34 C         140.0519  140.2020  169.0267 C.ar    1  UNL1       -0.0007
     35 C         139.2864  141.0958  169.9567 C.ar    1  UNL1       -0.0002
     36 C         139.8270  142.4496  170.3102 C.ar    1  UNL1       -0.0000
     37 C         141.1332  142.9096  169.7338 C.ar    1  UNL1       -0.0002
     38 C         141.8987  142.0157  168.8038 C.ar    1  UNL1       -0.0007
@<TRIPOS>BOND
     1     8     7    1
     2     8     9    1
     3     9    10    1
     4    10     1    1
     5     1     2   ar
     6     2     3   ar
     7     3     4   ar
     8     4    24    1
     9    24    25   ar
    10    25    26   ar
    11    26    27   ar
    12    27    31    1
    13    31    32    1
    14    32    33    1
    15    33    34   ar
    16    34    35   ar
    17    35    36   ar
    18    36    37   ar
    19    37    38   ar
    20    27    28   ar
    21    28    29   ar
    22    29    30    2
    23     4     5   ar
    24     5     6   ar
    25    10    11    1
    26    11    12    1
    27    12    15    1
    28    15    16   ar
    29    16    17   ar
    30    17    18    1
    31    17    19   ar
    32    19    20    1
    33    19    21   ar
    34    21    22   ar
    35    22    23    1
    36    12     8    1
    37    22    15   ar
    38     6     1   ar
    39    29    24   ar
    40    38    33   ar
    41     7    13    1
    42     7    14    1
@<TRIPOS>MOLECULE
*****
 38 42 0 0 0
SMALL
GASTEIGER

@<TRIPOS>ATOM
      1 C         140.3841  144.1154  159.0461 C.ar    1  UNL1        0.1318
      2 C         141.7776  143.5621  159.0888 C.ar    1  UNL1        0.0358
      3 C         142.2691  142.8619  160.3209 C.ar    1  UNL1        0.0221
      4 C         141.3671  142.7149  161.5103 C.ar    1  UNL1        0.0861
      5 C         139.9735  143.2682  161.4676 C.ar    1  UNL1        0.1178
      6 N         139.4820  143.9684  160.2356 N.ar    1  UNL1       -0.2276
      7 N         138.0799  145.0641  154.3908 N.3     1  UNL1       -0.3205
      8 C         138.8334  145.2517  155.6742 C.3     1  UNL1        0.0766
      9 C         139.1139  144.1893  156.6953 C.3     1  UNL1        0.1079
     10 N         139.8925  144.8156  157.8140 N.pl3   1  UNL1       -0.2915
     11 C         140.0933  146.2651  157.4843 C.3     1  UNL1        0.0980
     12 C         139.4387  146.5346  156.1618 C.3     1  UNL1        0.0602
     13 H         137.7804  144.0923  154.3113 H       1  UNL1        0.1189
     14 H         138.6849  145.2989  153.6039 H       1  UNL1        0.1189
     15 C         139.3968  147.8552  155.4517 C.ar    1  UNL1        0.0103
     16 C         139.9785  147.9853  154.0752 C.ar    1  UNL1        0.0300
     17 C         139.9366  149.3059  153.3650 C.ar    1  UNL1        0.1672
     18 F         140.5183  149.4360  151.9885 F       1  UNL1       -0.2018
     19 C         139.3131  150.4963  154.0313 C.ar    1  UNL1        0.1696
     20 F         139.2712  151.8169  153.3211 F       1  UNL1       -0.2017
     21 C         138.7314  150.3662  155.4079 C.ar    1  UNL1        0.0612
     22 C         138.7733  149.0457  156.1179 C.ar    1  UNL1        0.1386
     23 F         138.1916  148.9155  157.4945 F       1  UNL1       -0.2044
     24 N         141.8587  142.0146  162.7424 N.ar    1  UNL1       -0.2714
     25 C         142.7468  142.7369  163.7117 C.ar    1  UNL1        0.0861
     26 C         143.2383  142.0366  164.9438 C.ar    1  UNL1        0.0561
     27 C         142.8418  140.6141  165.2066 C.ar    1  UNL1        0.1453
     28 C         141.9536  139.8918  164.2372 C.ar    1  UNL1        0.0980
     29 C         141.4621  140.5921  163.0052 C.ar    1  UNL1        0.2679
     30 O         140.5739  139.8698  162.0359 O.2     1  UNL1       -0.2665
     31 O         143.3333  139.9138  166.4386 O.3     1  UNL1       -0.4704
     32 C         142.4532  139.8204  167.6497 C.3     1  UNL1        0.2320
     33 C         142.1093  141.0582  168.4242 C.ar    1  UNL1        0.0212
     34 C         140.7775  141.7198  168.2281 C.ar    1  UNL1       -0.0007
     35 C         140.4337  142.9575  169.0026 C.ar    1  UNL1       -0.0002
     36 C         141.4217  143.5336  169.9731 C.ar    1  UNL1       -0.0000
     37 C         142.7535  142.8720  170.1692 C.ar    1  UNL1       -0.0002
     38 C         143.0973  141.6343  169.3947 C.ar    1  UNL1       -0.0007
@<TRIPOS>BOND
     1     8     7    1
     2     8     9    1
     3     9    10    1
     4    10     1    1
     5     1     2   ar
     6     2     3   ar
     7     3     4   ar
     8     4    24    1
     9    24    25   ar
    10    25    26   ar
    11    26    27   ar
    12    27    31    1
    13    31    32    1
    14    32    33    1
    15    33    34   ar
    16    34    35   ar
    17    35    36   ar
    18    36    37   ar
    19    37    38   ar
    20    27    28   ar
    21    28    29   ar
    22    29    30    2
    23     4     5   ar
    24     5     6   ar
    25    10    11    1
    26    11    12    1
    27    12    15    1
    28    15    16   ar
    29    16    17   ar
    30    17    18    1
    31    17    19   ar
    32    19    20    1
    33    19    21   ar
    34    21    22   ar
    35    22    23    1
    36    12     8    1
    37    22    15   ar
    38     6     1   ar
    39    29    24   ar
    40    38    33   ar
    41     7    13    1
    42     7    14    1
@<TRIPOS>MOLECULE
*****
 38 42 0 0 0
SMALL
GASTEIGER

@<TRIPOS>ATOM
      1 C         143.3890  139.4059  157.9212 C.ar    1  UNL1        0.1318
      2 C         142.9024  140.5028  158.8212 C.ar    1  UNL1        0.0358
      3 C         142.1325  140.1671  160.0640 C.ar    1  UNL1        0.0221
      4 C         141.8493  138.7346  160.4068 C.ar    1  UNL1        0.0861
      5 C         142.3358  137.6377  159.5068 C.ar    1  UNL1        0.1178
      6 N         143.1057  137.9734  158.2640 N.ar    1  UNL1       -0.2276
      7 N         145.0888  139.4387  152.9221 N.3     1  UNL1       -0.3205
      8 C         144.9402  139.7566  154.3805 C.3     1  UNL1        0.0766
      9 C         143.9587  139.1276  155.3244 C.3     1  UNL1        0.1079
     10 N         144.1589  139.7416  156.6783 N.pl3   1  UNL1       -0.2915
     11 C         145.2640  140.7501  156.5711 C.3     1  UNL1        0.0980
     12 C         145.7469  140.7594  155.1510 C.3     1  UNL1        0.0602
     13 H         144.4140  138.7201  152.6603 H       1  UNL1        0.1189
     14 H         146.0338  139.0993  152.7427 H       1  UNL1        0.1189
     15 C         146.8439  141.6204  154.5984 C.ar    1  UNL1        0.0103
     16 C         148.2545  141.4347  155.0734 C.ar    1  UNL1        0.0300
     17 C         149.3515  142.2956  154.5208 C.ar    1  UNL1        0.1672
     18 F         150.7621  142.1099  154.9958 F       1  UNL1       -0.2018
     19 C         149.0378  143.3423  153.4932 C.ar    1  UNL1        0.1696
     20 F         150.1348  144.2032  152.9406 F       1  UNL1       -0.2017
     21 C         147.6272  143.5280  153.0181 C.ar    1  UNL1        0.0612
     22 C         146.5303  142.6671  153.5707 C.ar    1  UNL1        0.1386
     23 F         145.1196  142.8528  153.0957 F       1  UNL1       -0.2044
     24 N         141.0794  138.3989  161.6497 N.ar    1  UNL1       -0.2714
     25 C         139.5870  138.2591  161.5927 C.ar    1  UNL1        0.0861
     26 C         138.8171  137.9235  162.8355 C.ar    1  UNL1        0.0561
     27 C         139.5397  137.7276  164.1354 C.ar    1  UNL1        0.1453
     28 C         141.0321  137.8675  164.1923 C.ar    1  UNL1        0.0980
     29 C         141.8019  138.2031  162.9495 C.ar    1  UNL1        0.2679
     30 O         143.2943  138.3429  163.0065 O.2     1  UNL1       -0.2665
     31 O         138.7698  137.3920  165.3782 O.3     1  UNL1       -0.4704
     32 C         138.1352  138.4854  166.1855 C.3     1  UNL1        0.2320
     33 C         138.8854  139.7581  166.4452 C.ar    1  UNL1        0.0212
     34 C         139.6314  139.9393  167.7339 C.ar    1  UNL1       -0.0007
     35 C         140.3816  141.2119  167.9935 C.ar    1  UNL1       -0.0002
     36 C         140.3859  142.3034  166.9646 C.ar    1  UNL1       -0.0000
     37 C         139.6399  142.1222  165.6760 C.ar    1  UNL1       -0.0002
     38 C         138.8897  140.8495  165.4163 C.ar    1  UNL1       -0.0007
@<TRIPOS>BOND
     1     8     7    1
     2     8     9    1
     3     9    10    1
     4    10     1    1
     5     1     2   ar
     6     2     3   ar
     7     3     4   ar
     8     4    24    1
     9    24    25   ar
    10    25    26   ar
    11    26    27   ar
    12    27    31    1
    13    31    32    1
    14    32    33    1
    15    33    34   ar
    16    34    35   ar
    17    35    36   ar
    18    36    37   ar
    19    37    38   ar
    20    27    28   ar
    21    28    29   ar
    22    29    30    2
    23     4     5   ar
    24     5     6   ar
    25    10    11    1
    26    11    12    1
    27    12    15    1
    28    15    16   ar
    29    16    17   ar
    30    17    18    1
    31    17    19   ar
    32    19    20    1
    33    19    21   ar
    34    21    22   ar
    35    22    23    1
    36    12     8    1
    37    22    15   ar
    38     6     1   ar
    39    29    24   ar
    40    38    33   ar
    41     7    13    1
    42     7    14    1
@<TRIPOS>MOLECULE
*****
 38 42 0 0 0
SMALL
GASTEIGER

@<TRIPOS>ATOM
      1 C         142.1155  139.2628  163.0202 C.ar    1  UNL1        0.1318
      2 C         142.5652  137.9786  162.3889 C.ar    1  UNL1        0.0358
      3 C         142.5344  137.8253  160.8971 C.ar    1  UNL1        0.0221
      4 C         142.0537  138.9560  160.0367 C.ar    1  UNL1        0.0861
      5 C         141.6039  140.2401  160.6680 C.ar    1  UNL1        0.1178
      6 N         141.6348  140.3935  162.1598 N.ar    1  UNL1       -0.2276
      7 N         143.3487  138.6033  168.1119 N.3     1  UNL1       -0.3205
      8 C         142.7132  139.1130  166.8525 C.3     1  UNL1        0.0766
      9 C         143.0048  138.6339  165.4613 C.3     1  UNL1        0.1079
     10 N         142.1463  139.4162  164.5121 N.pl3   1  UNL1       -0.2915
     11 C         141.3241  140.3789  165.3166 C.3     1  UNL1        0.0980
     12 C         141.6744  140.1915  166.7630 C.3     1  UNL1        0.0602
     13 H         144.0199  137.8705  167.8816 H       1  UNL1        0.1189
     14 H         142.6286  138.2238  168.7266 H       1  UNL1        0.1189
     15 C         141.0889  140.9496  167.9174 C.ar    1  UNL1        0.0103
     16 C         139.8490  140.4451  168.5943 C.ar    1  UNL1        0.0300
     17 C         139.2634  141.2032  169.7486 C.ar    1  UNL1        0.1672
     18 F         138.0235  140.6987  170.4255 F       1  UNL1       -0.2018
     19 C         139.9177  142.4656  170.2260 C.ar    1  UNL1        0.1696
     20 F         139.3322  143.2236  171.3804 F       1  UNL1       -0.2017
     21 C         141.1577  142.9701  169.5491 C.ar    1  UNL1        0.0612
     22 C         141.7432  142.2121  168.3949 C.ar    1  UNL1        0.1386
     23 F         142.9832  142.7165  167.7179 F       1  UNL1       -0.2044
     24 N         142.0229  138.8026  158.5448 N.ar    1  UNL1       -0.2714
     25 C         143.2561  139.0788  157.7368 C.ar    1  UNL1        0.0861
     26 C         143.2252  138.9253  156.2449 C.ar    1  UNL1        0.0561
     27 C         141.9611  138.4957  155.5612 C.ar    1  UNL1        0.1453
     28 C         140.7279  138.2194  156.3693 C.ar    1  UNL1        0.0980
     29 C         140.7588  138.3729  157.8610 C.ar    1  UNL1        0.2679
     30 O         139.5256  138.0966  158.6692 O.2     1  UNL1       -0.2665
     31 O         141.9303  138.3422  154.0694 O.3     1  UNL1       -0.4704
     32 C         142.2282  137.0108  153.4461 C.3     1  UNL1        0.2320
     33 C         142.3513  135.7896  154.3085 C.ar    1  UNL1        0.0212
     34 C         143.6186  135.5329  155.0686 C.ar    1  UNL1       -0.0007
     35 C         143.7416  134.3118  155.9310 C.ar    1  UNL1       -0.0002
     36 C         142.5973  133.3474  156.0332 C.ar    1  UNL1       -0.0000
     37 C         141.3299  133.6041  155.2730 C.ar    1  UNL1       -0.0002
     38 C         141.2069  134.8252  154.4107 C.ar    1  UNL1       -0.0007
@<TRIPOS>BOND
     1     8     7    1
     2     8     9    1
     3     9    10    1
     4    10     1    1
     5     1     2   ar
     6     2     3   ar
     7     3     4   ar
     8     4    24    1
     9    24    25   ar
    10    25    26   ar
    11    26    27   ar
    12    27    31    1
    13    31    32    1
    14    32    33    1
    15    33    34   ar
    16    34    35   ar
    17    35    36   ar
    18    36    37   ar
    19    37    38   ar
    20    27    28   ar
    21    28    29   ar
    22    29    30    2
    23     4     5   ar
    24     5     6   ar
    25    10    11    1
    26    11    12    1
    27    12    15    1
    28    15    16   ar
    29    16    17   ar
    30    17    18    1
    31    17    19   ar
    32    19    20    1
    33    19    21   ar
    34    21    22   ar
    35    22    23    1
    36    12     8    1
    37    22    15   ar
    38     6     1   ar
    39    29    24   ar
    40    38    33   ar
    41     7    13    1
    42     7    14    1
@<TRIPOS>MOLECULE
*****
 38 42 0 0 0
SMALL
GASTEIGER

@<TRIPOS>ATOM
      1 C         141.6973  141.3300  161.5117 C.ar    1  UNL1        0.1318
      2 C         141.1615  141.7932  160.1895 C.ar    1  UNL1        0.0358
      3 C         142.0387  141.7643  158.9731 C.ar    1  UNL1        0.0221
      4 C         143.4517  141.2721  159.0790 C.ar    1  UNL1        0.0861
      5 C         143.9875  140.8088  160.4012 C.ar    1  UNL1        0.1178
      6 N         143.1102  140.8378  161.6175 N.ar    1  UNL1       -0.2276
      7 N         137.4371  141.4339  164.6296 N.3     1  UNL1       -0.3205
      8 C         138.8618  141.4067  164.1612 C.3     1  UNL1        0.0766
      9 C         139.3202  141.3812  162.7332 C.3     1  UNL1        0.1079
     10 N         140.8200  141.3590  162.7282 N.pl3   1  UNL1       -0.2915
     11 C         141.2886  141.3708  164.1530 C.3     1  UNL1        0.0980
     12 C         140.0784  141.4003  165.0387 C.3     1  UNL1        0.0602
     13 H         136.8137  141.4325  163.8222 H       1  UNL1        0.1189
     14 H         137.2766  142.2765  165.1815 H       1  UNL1        0.1189
     15 C         140.0838  141.4199  166.5386 C.ar    1  UNL1        0.0103
     16 C         140.5504  142.6430  167.2710 C.ar    1  UNL1        0.0300
     17 C         140.5558  142.6626  168.7709 C.ar    1  UNL1        0.1672
     18 F         141.0224  143.8857  169.5032 F       1  UNL1       -0.2018
     19 C         140.0945  141.4592  169.5383 C.ar    1  UNL1        0.1696
     20 F         140.0999  141.4789  171.0382 F       1  UNL1       -0.2017
     21 C         139.6279  140.2361  168.8059 C.ar    1  UNL1        0.0612
     22 C         139.6225  140.2166  167.3061 C.ar    1  UNL1        0.1386
     23 F         139.1559  138.9934  166.5736 F       1  UNL1       -0.2044
     24 N         144.3289  141.2431  157.8625 N.ar    1  UNL1       -0.2714
     25 C         145.2211  142.4086  157.5533 C.ar    1  UNL1        0.0861
     26 C         146.0983  142.3796  156.3368 C.ar    1  UNL1        0.0561
     27 C         146.0833  141.1851  155.4296 C.ar    1  UNL1        0.1453
     28 C         145.1911  140.0196  155.7389 C.ar    1  UNL1        0.0980
     29 C         144.3140  140.0486  156.9553 C.ar    1  UNL1        0.2679
     30 O         143.4218  138.8831  157.2646 O.2     1  UNL1       -0.2665
     31 O         146.9605  141.1562  154.2132 O.3     1  UNL1       -0.4704
     32 C         147.5566  142.4284  153.6879 C.3     1  UNL1        0.2320
     33 C         149.0392  142.6461  153.7558 C.ar    1  UNL1        0.0212
     34 C         149.8793  141.8067  154.6721 C.ar    1  UNL1       -0.0007
     35 C         151.3618  142.0244  154.7399 C.ar    1  UNL1       -0.0002
     36 C         152.0043  143.0815  153.8914 C.ar    1  UNL1       -0.0000
     37 C         151.1642  143.9208  152.9751 C.ar    1  UNL1       -0.0002
     38 C         149.6816  143.7031  152.9073 C.ar    1  UNL1       -0.0007
@<TRIPOS>BOND
     1     8     7    1
     2     8     9    1
     3     9    10    1
     4    10     1    1
     5     1     2   ar
     6     2     3   ar
     7     3     4   ar
     8     4    24    1
     9    24    25   ar
    10    25    26   ar
    11    26    27   ar
    12    27    31    1
    13    31    32    1
    14    32    33    1
    15    33    34   ar
    16    34    35   ar
    17    35    36   ar
    18    36    37   ar
    19    37    38   ar
    20    27    28   ar
    21    28    29   ar
    22    29    30    2
    23     4     5   ar
    24     5     6   ar
    25    10    11    1
    26    11    12    1
    27    12    15    1
    28    15    16   ar
    29    16    17   ar
    30    17    18    1
    31    17    19   ar
    32    19    20    1
    33    19    21   ar
    34    21    22   ar
    35    22    23    1
    36    12     8    1
    37    22    15   ar
    38     6     1   ar
    39    29    24   ar
    40    38    33   ar
    41     7    13    1
    42     7    14    1
@<TRIPOS>MOLECULE
*****
 38 42 0 0 0
SMALL
GASTEIGER

@<TRIPOS>ATOM
      1 C         140.3874  140.5398  162.1212 C.ar    1  UNL1        0.1318
      2 C         140.8338  139.1078  162.1129 C.ar    1  UNL1        0.0358
      3 C         141.0423  138.3947  160.8099 C.ar    1  UNL1        0.0221
      4 C         140.8045  139.1137  159.5151 C.ar    1  UNL1        0.0861
      5 C         140.3581  140.5457  159.5233 C.ar    1  UNL1        0.1178
      6 N         140.1496  141.2587  160.8263 N.ar    1  UNL1       -0.2276
      7 N         139.0633  144.2048  165.6843 N.3     1  UNL1       -0.3205
      8 C         139.5702  142.9376  165.0620 C.3     1  UNL1        0.0766
      9 C         139.5908  142.6222  163.5957 C.3     1  UNL1        0.1079
     10 N         140.1788  141.2529  163.4243 N.pl3   1  UNL1       -0.2915
     11 C         140.5216  140.7220  164.7846 C.3     1  UNL1        0.0980
     12 C         140.1455  141.7632  165.7968 C.3     1  UNL1        0.0602
     13 H         138.7286  144.8324  164.9532 H       1  UNL1        0.1189
     14 H         139.8186  144.6560  166.2002 H       1  UNL1        0.1189
     15 C         140.3149  141.6498  167.2829 C.ar    1  UNL1        0.0103
     16 C         141.1242  142.6713  168.0256 C.ar    1  UNL1        0.0300
     17 C         141.2936  142.5579  169.5117 C.ar    1  UNL1        0.1672
     18 F         142.1030  143.5794  170.2544 F       1  UNL1       -0.2018
     19 C         140.6537  141.4232  170.2551 C.ar    1  UNL1        0.1696
     20 F         140.8231  141.3098  171.7412 F       1  UNL1       -0.2017
     21 C         139.8442  140.4017  169.5124 C.ar    1  UNL1        0.0612
     22 C         139.6749  140.5151  168.0264 C.ar    1  UNL1        0.1386
     23 F         138.8655  139.4936  167.2836 F       1  UNL1       -0.2044
     24 N         141.0131  138.4005  158.2119 N.ar    1  UNL1       -0.2714
     25 C         139.8372  137.8457  157.4640 C.ar    1  UNL1        0.0861
     26 C         140.0458  137.1325  156.1609 C.ar    1  UNL1        0.0561
     27 C         141.4303  136.9743  155.6058 C.ar    1  UNL1        0.1453
     28 C         142.6062  137.5292  156.3538 C.ar    1  UNL1        0.0980
     29 C         142.3976  138.2423  157.6568 C.ar    1  UNL1        0.2679
     30 O         143.5735  138.7972  158.4048 O.2     1  UNL1       -0.2665
     31 O         141.6389  136.2612  154.3028 O.3     1  UNL1       -0.4704
     32 C         142.7519  135.2655  154.1626 C.3     1  UNL1        0.2320
     33 C         142.8054  134.0684  155.0650 C.ar    1  UNL1        0.0212
     34 C         141.9110  132.8927  154.8052 C.ar    1  UNL1       -0.0007
     35 C         141.9646  131.6957  155.7076 C.ar    1  UNL1       -0.0002
     36 C         142.9126  131.6745  156.8698 C.ar    1  UNL1       -0.0000
     37 C         143.8070  132.8502  157.1297 C.ar    1  UNL1       -0.0002
     38 C         143.7535  134.0472  156.2273 C.ar    1  UNL1       -0.0007
@<TRIPOS>BOND
     1     8     7    1
     2     8     9    1
     3     9    10    1
     4    10     1    1
     5     1     2   ar
     6     2     3   ar
     7     3     4   ar
     8     4    24    1
     9    24    25   ar
    10    25    26   ar
    11    26    27   ar
    12    27    31    1
    13    31    32    1
    14    32    33    1
    15    33    34   ar
    16    34    35   ar
    17    35    36   ar
    18    36    37   ar
    19    37    38   ar
    20    27    28   ar
    21    28    29   ar
    22    29    30    2
    23     4     5   ar
    24     5     6   ar
    25    10    11    1
    26    11    12    1
    27    12    15    1
    28    15    16   ar
    29    16    17   ar
    30    17    18    1
    31    17    19   ar
    32    19    20    1
    33    19    21   ar
    34    21    22   ar
    35    22    23    1
    36    12     8    1
    37    22    15   ar
    38     6     1   ar
    39    29    24   ar
    40    38    33   ar
    41     7    13    1
    42     7    14    1
@<TRIPOS>MOLECULE
*****
 38 42 0 0 0
SMALL
GASTEIGER

@<TRIPOS>ATOM
      1 C         140.4741  141.4737  161.8503 C.ar    1  UNL1        0.1318
      2 C         139.1204  142.0612  161.5812 C.ar    1  UNL1        0.0358
      3 C         138.8987  142.9066  160.3622 C.ar    1  UNL1        0.0221
      4 C         140.0307  143.1647  159.4124 C.ar    1  UNL1        0.0861
      5 C         141.3843  142.5772  159.6815 C.ar    1  UNL1        0.1178
      6 N         141.6060  141.7317  160.9005 N.ar    1  UNL1       -0.2276
      7 N         141.5063  137.3487  164.9809 N.3     1  UNL1       -0.3205
      8 C         141.1703  138.7321  164.5083 C.3     1  UNL1        0.0766
      9 C         141.0417  139.1686  163.0790 C.3     1  UNL1        0.1079
     10 N         140.6959  140.6282  163.0694 N.pl3   1  UNL1       -0.2915
     11 C         140.6107  141.0937  164.4927 C.3     1  UNL1        0.0980
     12 C         140.9040  139.9219  165.3820 C.3     1  UNL1        0.0602
     13 H         141.6370  136.7366  164.1754 H       1  UNL1        0.1189
     14 H         140.7449  136.9925  165.5586 H       1  UNL1        0.1189
     15 C         140.9268  139.9372  166.8818 C.ar    1  UNL1        0.0103
     16 C         139.6729  140.2384  167.6480 C.ar    1  UNL1        0.0300
     17 C         139.6958  140.2536  169.1477 C.ar    1  UNL1        0.1672
     18 F         138.4419  140.5548  169.9139 F       1  UNL1       -0.2018
     19 C         140.9725  139.9678  169.8812 C.ar    1  UNL1        0.1696
     20 F         140.9954  139.9831  171.3810 F       1  UNL1       -0.2017
     21 C         142.2265  139.6666  169.1151 C.ar    1  UNL1        0.0612
     22 C         142.2036  139.6514  167.6154 C.ar    1  UNL1        0.1386
     23 F         143.4575  139.3502  166.8491 F       1  UNL1       -0.2044
     24 N         139.8089  144.0102  158.1934 N.ar    1  UNL1       -0.2714
     25 C         140.3372  145.4133  158.1476 C.ar    1  UNL1        0.0861
     26 C         140.1154  146.2589  156.9286 C.ar    1  UNL1        0.0561
     27 C         139.3653  145.7012  155.7553 C.ar    1  UNL1        0.1453
     28 C         138.8370  144.2980  155.8012 C.ar    1  UNL1        0.0980
     29 C         139.0588  143.4526  157.0202 C.ar    1  UNL1        0.2679
     30 O         138.5305  142.0494  157.0660 O.2     1  UNL1       -0.2665
     31 O         139.1435  146.5467  154.5364 O.3     1  UNL1       -0.4704
     32 C         140.0616  147.6962  154.2438 C.3     1  UNL1        0.2320
     33 C         139.5803  149.1054  154.4245 C.ar    1  UNL1        0.0212
     34 C         138.8363  149.4900  155.6689 C.ar    1  UNL1       -0.0007
     35 C         138.3550  150.8991  155.8497 C.ar    1  UNL1       -0.0002
     36 C         138.6176  151.9236  154.7860 C.ar    1  UNL1       -0.0000
     37 C         139.3616  151.5390  153.5416 C.ar    1  UNL1       -0.0002
     38 C         139.8429  150.1299  153.3609 C.ar    1  UNL1       -0.0007
@<TRIPOS>BOND
     1     8     7    1
     2     8     9    1
     3     9    10    1
     4    10     1    1
     5     1     2   ar
     6     2     3   ar
     7     3     4   ar
     8     4    24    1
     9    24    25   ar
    10    25    26   ar
    11    26    27   ar
    12    27    31    1
    13    31    32    1
    14    32    33    1
    15    33    34   ar
    16    34    35   ar
    17    35    36   ar
    18    36    37   ar
    19    37    38   ar
    20    27    28   ar
    21    28    29   ar
    22    29    30    2
    23     4     5   ar
    24     5     6   ar
    25    10    11    1
    26    11    12    1
    27    12    15    1
    28    15    16   ar
    29    16    17   ar
    30    17    18    1
    31    17    19   ar
    32    19    20    1
    33    19    21   ar
    34    21    22   ar
    35    22    23    1
    36    12     8    1
    37    22    15   ar
    38     6     1   ar
    39    29    24   ar
    40    38    33   ar
    41     7    13    1
    42     7    14    1
@<TRIPOS>MOLECULE
*****
 38 42 0 0 0
SMALL
GASTEIGER

@<TRIPOS>ATOM
      1 C         140.9544  140.8720  161.3701 C.ar    1  UNL1        0.1318
      2 C         141.2045  139.3971  161.4793 C.ar    1  UNL1        0.0358
      3 C         141.2430  138.5494  160.2425 C.ar    1  UNL1        0.0221
      4 C         141.0314  139.1765  158.8965 C.ar    1  UNL1        0.0861
      5 C         140.7812  140.6515  158.7872 C.ar    1  UNL1        0.1178
      6 N         140.7427  141.4992  160.0241 N.ar    1  UNL1       -0.2276
      7 N         140.1485  144.9251  164.6571 N.3     1  UNL1       -0.3205
      8 C         140.5454  143.5829  164.1178 C.3     1  UNL1        0.0766
      9 C         140.3898  143.1216  162.6990 C.3     1  UNL1        0.1079
     10 N         140.9158  141.7199  162.6070 N.pl3   1  UNL1       -0.2915
     11 C         141.3966  141.3148  163.9689 C.3     1  UNL1        0.0980
     12 C         141.1677  142.4662  164.9026 C.3     1  UNL1        0.0602
     13 H         139.7503  145.4890  163.9062 H       1  UNL1        0.1189
     14 H         140.9701  145.3956  165.0366 H       1  UNL1        0.1189
     15 C         141.5023  142.4958  166.3646 C.ar    1  UNL1        0.0103
     16 C         140.4203  142.7284  167.3770 C.ar    1  UNL1        0.0300
     17 C         140.7549  142.7580  168.8390 C.ar    1  UNL1        0.1672
     18 F         139.6729  142.9906  169.8514 F       1  UNL1       -0.2018
     19 C         142.1714  142.5549  169.2883 C.ar    1  UNL1        0.1696
     20 F         142.5060  142.5845  170.7503 F       1  UNL1       -0.2017
     21 C         143.2535  142.3223  168.2758 C.ar    1  UNL1        0.0612
     22 C         142.9189  142.2927  166.8140 C.ar    1  UNL1        0.1386
     23 F         144.0009  142.0601  165.8014 F       1  UNL1       -0.2044
     24 N         141.0699  138.3287  157.6596 N.ar    1  UNL1       -0.2714
     25 C         139.8075  137.7139  157.1322 C.ar    1  UNL1        0.0861
     26 C         139.8460  136.8660  155.8953 C.ar    1  UNL1        0.0561
     27 C         141.1470  136.6331  155.1859 C.ar    1  UNL1        0.1453
     28 C         142.4094  137.2480  155.7134 C.ar    1  UNL1        0.0980
     29 C         142.3709  138.0958  156.9502 C.ar    1  UNL1        0.2679
     30 O         143.6333  138.7107  157.4777 O.2     1  UNL1       -0.2665
     31 O         141.1856  135.7853  153.9491 O.3     1  UNL1       -0.4704
     32 C         142.3121  134.8177  153.7380 C.3     1  UNL1        0.2320
     33 C         142.5085  133.6758  154.6907 C.ar    1  UNL1        0.0212
     34 C         141.6668  132.4407  154.5648 C.ar    1  UNL1       -0.0007
     35 C         141.8633  131.2989  155.5175 C.ar    1  UNL1       -0.0002
     36 C         142.9015  131.3923  156.5962 C.ar    1  UNL1       -0.0000
     37 C         143.7431  132.6275  156.7221 C.ar    1  UNL1       -0.0002
     38 C         143.5467  133.7692  155.7694 C.ar    1  UNL1       -0.0007
@<TRIPOS>BOND
     1     8     7    1
     2     8     9    1
     3     9    10    1
     4    10     1    1
     5     1     2   ar
     6     2     3   ar
     7     3     4   ar
     8     4    24    1
     9    24    25   ar
    10    25    26   ar
    11    26    27   ar
    12    27    31    1
    13    31    32    1
    14    32    33    1
    15    33    34   ar
    16    34    35   ar
    17    35    36   ar
    18    36    37   ar
    19    37    38   ar
    20    27    28   ar
    21    28    29   ar
    22    29    30    2
    23     4     5   ar
    24     5     6   ar
    25    10    11    1
    26    11    12    1
    27    12    15    1
    28    15    16   ar
    29    16    17   ar
    30    17    18    1
    31    17    19   ar
    32    19    20    1
    33    19    21   ar
    34    21    22   ar
    35    22    23    1
    36    12     8    1
    37    22    15   ar
    38     6     1   ar
    39    29    24   ar
    40    38    33   ar
    41     7    13    1
    42     7    14    1
