@<TRIPOS>MOLECULE
*****
 37 41 0 0 0
SMALL
GASTEIGER

@<TRIPOS>ATOM
      1 C         138.8282  142.0904  160.8196 C.ar    1  UNL1        0.1789
      2 C         139.4875  141.4198  161.9882 C.ar    1  UNL1        0.0601
      3 C         138.7474  141.8196  163.2301 C.ar    1  UNL1        0.1227
      4 N         137.6307  142.7373  162.8291 N.ar    1  UNL1       -0.0773
      5 O         137.6806  142.9047  161.3393 O.2     1  UNL1       -0.3557
      6 C         139.0678  141.3791  164.6278 C.ar    1  UNL1        0.0248
      7 C         138.5323  140.0769  165.1450 C.ar    1  UNL1        0.0015
      8 C         138.8526  139.6363  166.5426 C.ar    1  UNL1        0.0039
      9 C         139.7086  140.4980  167.4230 C.ar    1  UNL1        0.0714
     10 C         140.2441  141.8002  166.9057 C.ar    1  UNL1        0.0078
     11 C         139.9237  142.2407  165.5081 C.ar    1  UNL1        0.0729
     12 C         140.0289  140.0575  168.8206 C.3     1  UNL1        0.4186
     13 F         140.3493  139.6170  170.2182 F       1  UNL1       -0.1659
     14 F         138.5636  139.9713  169.1294 F       1  UNL1       -0.1659
     15 F         141.4942  140.1437  168.5119 F       1  UNL1       -0.1659
     16 C         140.4592  143.5429  164.9908 C.3     1  UNL1        0.4186
     17 F         140.9947  144.8450  164.4735 F       1  UNL1       -0.1659
     18 F         141.6833  142.8386  164.4852 F       1  UNL1       -0.1659
     19 F         139.2351  144.2471  165.4965 F       1  UNL1       -0.1659
     20 C         139.2436  141.9682  159.3835 C.3     1  UNL1        0.1942
     21 C         142.1751  136.8103  157.0256 C.ar    1  UNL1        0.1646
     22 N         143.1327  137.7668  157.6724 N.ar    1  UNL1       -0.2233
     23 C         142.3444  138.9339  158.1885 C.ar    1  UNL1        0.1229
     24 C         142.7556  140.1804  158.9146 C.ar    1  UNL1        0.1408
     25 N         141.7220  141.1918  159.3129 N.ar    1  UNL1       -0.1656
     26 N         140.2772  140.9567  158.9851 N.ar    1  UNL1       -0.2400
     27 C         139.8661  139.7102  158.2591 C.ar    1  UNL1        0.1162
     28 C         140.8997  138.6988  157.8608 C.ar    1  UNL1        0.1209
     29 N         140.7951  137.3864  157.1421 N.ar    1  UNL1       -0.2234
     30 F         144.1924  132.0320  157.3399 F       1  UNL1       -0.2018
     31 C         143.5432  133.1176  156.5336 C.ar    1  UNL1        0.1675
     32 C         143.2533  132.8995  155.0781 C.ar    1  UNL1        0.0320
     33 C         142.6040  133.9850  154.2719 C.ar    1  UNL1        0.0026
     34 C         142.2447  135.2886  154.9210 C.ar    1  UNL1        0.0054
     35 C         142.5345  135.5067  156.3765 C.ar    1  UNL1        0.0655
     36 C         143.1838  134.4212  157.1827 C.ar    1  UNL1        0.1703
     37 F         143.4736  134.6393  158.6383 F       1  UNL1       -0.2017
@<TRIPOS>BOND
     1    30    31    1
     2    31    32   ar
     3    32    33   ar
     4    33    34   ar
     5    34    35   ar
     6    35    21    1
     7    21    22   ar
     8    22    23   ar
     9    23    24   ar
    10    24    25   ar
    11    25    26   ar
    12    26    20    1
    13    20     1    1
    14     1     2   ar
    15     2     3   ar
    16     3     6    1
    17     6     7   ar
    18     7     8   ar
    19     8     9   ar
    20     9    12    1
    21    12    13    1
    22    12    14    1
    23    12    15    1
    24     9    10   ar
    25    10    11   ar
    26    11    16    1
    27    16    17    1
    28    16    18    1
    29    16    19    1
    30     3     4   ar
    31     4     5   ar
    32    26    27   ar
    33    27    28   ar
    34    28    29   ar
    35    35    36   ar
    36    36    37    1
    37    36    31   ar
    38    29    21   ar
    39    28    23    1
    40     5     1   ar
    41    11     6   ar
@<TRIPOS>MOLECULE
*****
 37 41 0 0 0
SMALL
GASTEIGER

@<TRIPOS>ATOM
      1 C         142.9588  137.4582  156.8903 C.ar    1  UNL1        0.1789
      2 C         142.1653  136.1853  156.8974 C.ar    1  UNL1        0.0601
      3 C         142.9051  135.1733  156.0737 C.ar    1  UNL1        0.1227
      4 N         144.1559  135.8208  155.5574 N.ar    1  UNL1       -0.0773
      5 O         144.1890  137.2329  156.0622 O.2     1  UNL1       -0.3557
      6 C         142.4705  133.7617  155.8120 C.ar    1  UNL1        0.0248
      7 C         141.3621  133.4861  154.8396 C.ar    1  UNL1        0.0015
      8 C         140.9275  132.0745  154.5779 C.ar    1  UNL1        0.0039
      9 C         141.6013  130.9384  155.2888 C.ar    1  UNL1        0.0714
     10 C         142.7096  131.2139  156.2613 C.ar    1  UNL1        0.0078
     11 C         143.1442  132.6255  156.5229 C.ar    1  UNL1        0.0729
     12 C         141.1666  129.5268  155.0272 C.3     1  UNL1        0.4186
     13 F         140.7321  128.1152  154.7656 F       1  UNL1       -0.1659
     14 F         139.7572  129.9983  154.8246 F       1  UNL1       -0.1659
     15 F         142.5760  129.0553  155.2298 F       1  UNL1       -0.1659
     16 C         144.2526  132.9011  157.4953 C.3     1  UNL1        0.4186
     17 F         145.3609  133.1765  158.4677 F       1  UNL1       -0.1659
     18 F         145.2347  132.2664  156.5557 F       1  UNL1       -0.1659
     19 F         143.2705  133.5356  158.4349 F       1  UNL1       -0.1659
     20 C         142.5873  138.7326  157.5887 C.3     1  UNL1        0.1942
     21 C         140.8263  139.1485  163.7110 C.ar    1  UNL1        0.1646
     22 N         142.3117  139.0141  163.5510 N.ar    1  UNL1       -0.2233
     23 C         142.6138  138.9248  162.0845 C.ar    1  UNL1        0.1229
     24 C         143.9036  138.7816  161.3323 C.ar    1  UNL1        0.1408
     25 N         143.8948  138.7176  159.8338 N.ar    1  UNL1       -0.1656
     26 N         142.5961  138.7967  159.0873 N.ar    1  UNL1       -0.2400
     27 C         141.3062  138.9398  159.8395 C.ar    1  UNL1        0.1162
     28 C         141.3151  139.0039  161.3381 C.ar    1  UNL1        0.1209
     29 N         140.2104  139.1421  162.3433 N.ar    1  UNL1       -0.2234
     30 F         137.1076  137.4939  166.9412 F       1  UNL1       -0.2018
     31 C         138.2274  138.4409  166.6256 C.ar    1  UNL1        0.1675
     32 C         138.6075  139.5074  167.6095 C.ar    1  UNL1        0.0320
     33 C         139.7272  140.4543  167.2939 C.ar    1  UNL1        0.0026
     34 C         140.4668  140.3346  165.9944 C.ar    1  UNL1        0.0054
     35 C         140.0867  139.2681  165.0105 C.ar    1  UNL1        0.0655
     36 C         138.9670  138.3212  165.3261 C.ar    1  UNL1        0.1703
     37 F         138.5868  137.2547  164.3423 F       1  UNL1       -0.2017
@<TRIPOS>BOND
     1    30    31    1
     2    31    32   ar
     3    32    33   ar
     4    33    34   ar
     5    34    35   ar
     6    35    21    1
     7    21    22   ar
     8    22    23   ar
     9    23    24   ar
    10    24    25   ar
    11    25    26   ar
    12    26    20    1
    13    20     1    1
    14     1     2   ar
    15     2     3   ar
    16     3     6    1
    17     6     7   ar
    18     7     8   ar
    19     8     9   ar
    20     9    12    1
    21    12    13    1
    22    12    14    1
    23    12    15    1
    24     9    10   ar
    25    10    11   ar
    26    11    16    1
    27    16    17    1
    28    16    18    1
    29    16    19    1
    30     3     4   ar
    31     4     5   ar
    32    26    27   ar
    33    27    28   ar
    34    28    29   ar
    35    35    36   ar
    36    36    37    1
    37    36    31   ar
    38    29    21   ar
    39    28    23    1
    40     5     1   ar
    41    11     6   ar
@<TRIPOS>MOLECULE
*****
 37 41 0 0 0
SMALL
GASTEIGER

@<TRIPOS>ATOM
      1 C         139.8818  141.4929  161.7097 C.ar    1  UNL1        0.1789
      2 C         140.5567  141.4154  163.0470 C.ar    1  UNL1        0.0601
      3 C         139.5141  141.6233  164.1052 C.ar    1  UNL1        0.1227
      4 N         138.1947  141.8294  163.4219 N.ar    1  UNL1       -0.0773
      5 O         138.4220  141.7488  161.9414 O.2     1  UNL1       -0.3557
      6 C         139.7495  141.6249  165.5866 C.ar    1  UNL1        0.0248
      7 C         140.1819  142.8849  166.2760 C.ar    1  UNL1        0.0015
      8 C         140.4173  142.8866  167.7574 C.ar    1  UNL1        0.0039
      9 C         140.2203  141.6280  168.5495 C.ar    1  UNL1        0.0714
     10 C         139.7879  140.3680  167.8601 C.ar    1  UNL1        0.0078
     11 C         139.5525  140.3664  166.3787 C.ar    1  UNL1        0.0729
     12 C         140.4557  141.6296  170.0309 C.3     1  UNL1        0.4186
     13 F         140.6910  141.6312  171.5123 F       1  UNL1       -0.1659
     14 F         141.8781  142.0485  169.8045 F       1  UNL1       -0.1659
     15 F         139.0333  141.2107  170.2574 F       1  UNL1       -0.1659
     16 C         139.1202  139.1063  165.6893 C.3     1  UNL1        0.4186
     17 F         138.6877  137.8463  165.0000 F       1  UNL1       -0.1659
     18 F         137.6839  139.4776  165.9116 F       1  UNL1       -0.1659
     19 F         140.5564  138.7351  165.4670 F       1  UNL1       -0.1659
     20 C         140.5494  141.3413  160.3751 C.3     1  UNL1        0.1942
     21 C         139.6062  146.0867  156.2100 C.ar    1  UNL1        0.1646
     22 N         138.8657  144.8383  155.8319 N.ar    1  UNL1       -0.2233
     23 C         139.1552  143.7951  156.8701 C.ar    1  UNL1        0.1229
     24 C         138.7004  142.3734  157.0186 C.ar    1  UNL1        0.1408
     25 N         139.1651  141.5555  158.1869 N.ar    1  UNL1       -0.1656
     26 N         140.0847  142.1593  159.2067 N.ar    1  UNL1       -0.2400
     27 C         140.5395  143.5809  159.0582 C.ar    1  UNL1        0.1162
     28 C         140.0747  144.3988  157.8899 C.ar    1  UNL1        0.1209
     29 N         140.3534  145.8151  157.4819 N.ar    1  UNL1       -0.2234
     30 F         138.2314  151.0841  155.8413 F       1  UNL1       -0.2018
     31 C         138.9131  149.8784  155.2653 C.ar    1  UNL1        0.1675
     32 C         139.5890  149.9658  153.9291 C.ar    1  UNL1        0.0320
     33 C         140.2706  148.7601  153.3532 C.ar    1  UNL1        0.0026
     34 C         140.2764  147.4671  154.1135 C.ar    1  UNL1        0.0054
     35 C         139.6005  147.3797  155.4497 C.ar    1  UNL1        0.0655
     36 C         138.9188  148.5854  156.0256 C.ar    1  UNL1        0.1703
     37 F         138.2428  148.4981  157.3618 F       1  UNL1       -0.2017
@<TRIPOS>BOND
     1    30    31    1
     2    31    32   ar
     3    32    33   ar
     4    33    34   ar
     5    34    35   ar
     6    35    21    1
     7    21    22   ar
     8    22    23   ar
     9    23    24   ar
    10    24    25   ar
    11    25    26   ar
    12    26    20    1
    13    20     1    1
    14     1     2   ar
    15     2     3   ar
    16     3     6    1
    17     6     7   ar
    18     7     8   ar
    19     8     9   ar
    20     9    12    1
    21    12    13    1
    22    12    14    1
    23    12    15    1
    24     9    10   ar
    25    10    11   ar
    26    11    16    1
    27    16    17    1
    28    16    18    1
    29    16    19    1
    30     3     4   ar
    31     4     5   ar
    32    26    27   ar
    33    27    28   ar
    34    28    29   ar
    35    35    36   ar
    36    36    37    1
    37    36    31   ar
    38    29    21   ar
    39    28    23    1
    40     5     1   ar
    41    11     6   ar
@<TRIPOS>MOLECULE
*****
 37 41 0 0 0
SMALL
GASTEIGER

@<TRIPOS>ATOM
      1 C         139.2025  142.1440  160.6363 C.ar    1  UNL1        0.1789
      2 C         139.8781  141.6630  161.8861 C.ar    1  UNL1        0.0601
      3 C         139.0656  142.1250  163.0594 C.ar    1  UNL1        0.1227
      4 N         137.8878  142.8915  162.5346 N.ar    1  UNL1       -0.0773
      5 O         137.9725  142.9032  161.0370 O.2     1  UNL1       -0.3557
      6 C         139.3764  141.8660  164.5038 C.ar    1  UNL1        0.0248
      7 C         138.8916  140.6079  165.1614 C.ar    1  UNL1        0.0015
      8 C         139.2023  140.3488  166.6058 C.ar    1  UNL1        0.0039
      9 C         139.9978  141.3479  167.3927 C.ar    1  UNL1        0.0714
     10 C         140.4825  142.6059  166.7351 C.ar    1  UNL1        0.0078
     11 C         140.1718  142.8649  165.2907 C.ar    1  UNL1        0.0729
     12 C         140.3085  141.0888  168.8371 C.3     1  UNL1        0.4186
     13 F         140.6192  140.8298  170.2815 F       1  UNL1       -0.1659
     14 F         141.2746  142.2363  168.8351 F       1  UNL1       -0.1659
     15 F         139.3425  139.9414  168.8391 F       1  UNL1       -0.1659
     16 C         140.6566  144.1230  164.6331 C.3     1  UNL1        0.4186
     17 F         141.1412  145.3810  163.9756 F       1  UNL1       -0.1659
     18 F         139.3846  144.8164  165.0224 F       1  UNL1       -0.1659
     19 F         141.9284  143.4295  164.2440 F       1  UNL1       -0.1659
     20 C         139.6741  141.9073  159.2322 C.3     1  UNL1        0.1942
     21 C         139.2319  147.0556  155.4830 C.ar    1  UNL1        0.1646
     22 N         138.3553  145.9314  155.0165 N.ar    1  UNL1       -0.2233
     23 C         138.5351  144.7804  155.9615 C.ar    1  UNL1        0.1229
     24 C         137.9270  143.4098  156.0011 C.ar    1  UNL1        0.1408
     25 N         138.3067  142.4521  157.0913 N.ar    1  UNL1       -0.1656
     26 N         139.2944  142.8651  158.1419 N.ar    1  UNL1       -0.2400
     27 C         139.9025  144.2357  158.1024 C.ar    1  UNL1        0.1162
     28 C         139.5228  145.1934  157.0121 C.ar    1  UNL1        0.1209
     29 N         139.9534  146.5995  156.7164 N.ar    1  UNL1       -0.2234
     30 F         138.4109  152.1862  155.5424 F       1  UNL1       -0.2018
     31 C         138.9533  150.9651  154.8604 C.ar    1  UNL1        0.1675
     32 C         139.6274  151.0885  153.5261 C.ar    1  UNL1        0.0320
     33 C         140.1697  149.8675  152.8442 C.ar    1  UNL1        0.0026
     34 C         140.0379  148.5232  153.4965 C.ar    1  UNL1        0.0054
     35 C         139.3637  148.3999  154.8307 C.ar    1  UNL1        0.0655
     36 C         138.8214  149.6209  155.5127 C.ar    1  UNL1        0.1703
     37 F         138.1472  149.4976  156.8470 F       1  UNL1       -0.2017
@<TRIPOS>BOND
     1    30    31    1
     2    31    32   ar
     3    32    33   ar
     4    33    34   ar
     5    34    35   ar
     6    35    21    1
     7    21    22   ar
     8    22    23   ar
     9    23    24   ar
    10    24    25   ar
    11    25    26   ar
    12    26    20    1
    13    20     1    1
    14     1     2   ar
    15     2     3   ar
    16     3     6    1
    17     6     7   ar
    18     7     8   ar
    19     8     9   ar
    20     9    12    1
    21    12    13    1
    22    12    14    1
    23    12    15    1
    24     9    10   ar
    25    10    11   ar
    26    11    16    1
    27    16    17    1
    28    16    18    1
    29    16    19    1
    30     3     4   ar
    31     4     5   ar
    32    26    27   ar
    33    27    28   ar
    34    28    29   ar
    35    35    36   ar
    36    36    37    1
    37    36    31   ar
    38    29    21   ar
    39    28    23    1
    40     5     1   ar
    41    11     6   ar
@<TRIPOS>MOLECULE
*****
 37 41 0 0 0
SMALL
GASTEIGER

@<TRIPOS>ATOM
      1 C         143.2656  138.3176  157.3895 C.ar    1  UNL1        0.1789
      2 C         142.5864  136.9828  157.4735 C.ar    1  UNL1        0.0601
      3 C         143.1800  136.0936  156.4214 C.ar    1  UNL1        0.1227
      4 N         144.2261  136.8788  155.6871 N.ar    1  UNL1       -0.0773
      5 O         144.2790  138.2532  156.2854 O.2     1  UNL1       -0.3557
      6 C         142.7950  134.6692  156.1511 C.ar    1  UNL1        0.0248
      7 C         143.3782  133.5642  156.9811 C.ar    1  UNL1        0.0015
      8 C         142.9933  132.1399  156.7109 C.ar    1  UNL1        0.0039
      9 C         142.0252  131.8205  155.6105 C.ar    1  UNL1        0.0714
     10 C         141.4420  132.9255  154.7805 C.ar    1  UNL1        0.0078
     11 C         141.8269  134.3499  155.0508 C.ar    1  UNL1        0.0729
     12 C         141.6402  130.3962  155.3401 C.3     1  UNL1        0.4186
     13 F         141.2553  128.9719  155.0698 F       1  UNL1       -0.1659
     14 F         140.8076  130.8423  154.1749 F       1  UNL1       -0.1659
     15 F         142.4728  129.9500  156.5053 F       1  UNL1       -0.1659
     16 C         141.2438  135.4549  154.2208 C.3     1  UNL1        0.4186
     17 F         140.6607  136.5598  153.3908 F       1  UNL1       -0.1659
     18 F         142.3237  135.2569  153.1986 F       1  UNL1       -0.1659
     19 F         140.1640  135.6528  155.2429 F       1  UNL1       -0.1659
     20 C         142.9814  139.5077  158.2571 C.3     1  UNL1        0.1942
     21 C         141.0501  139.4367  164.3417 C.ar    1  UNL1        0.1646
     22 N         142.4738  138.9899  164.1883 N.ar    1  UNL1       -0.2233
     23 C         142.8222  139.0442  162.7303 C.ar    1  UNL1        0.1229
     24 C         144.0836  138.7184  161.9870 C.ar    1  UNL1        0.1408
     25 N         144.1367  138.8729  160.4960 N.ar    1  UNL1       -0.1656
     26 N         142.9283  139.3532  159.7482 N.ar    1  UNL1       -0.2400
     27 C         141.6669  139.6790  160.4915 C.ar    1  UNL1        0.1162
     28 C         141.6138  139.5246  161.9826 C.ar    1  UNL1        0.1209
     29 N         140.5186  139.7671  162.9785 N.ar    1  UNL1       -0.2234
     30 F         136.9484  138.1480  167.2598 F       1  UNL1       -0.2018
     31 C         138.2403  138.8913  167.0908 C.ar    1  UNL1        0.1675
     32 C         138.7732  139.7335  168.2118 C.ar    1  UNL1        0.0320
     33 C         140.0651  140.4767  168.0428 C.ar    1  UNL1        0.0026
     34 C         140.8241  140.3778  166.7527 C.ar    1  UNL1        0.0054
     35 C         140.2911  139.5356  165.6317 C.ar    1  UNL1        0.0655
     36 C         138.9993  138.7924  165.8008 C.ar    1  UNL1        0.1703
     37 F         138.4663  137.9501  164.6797 F       1  UNL1       -0.2017
@<TRIPOS>BOND
     1    30    31    1
     2    31    32   ar
     3    32    33   ar
     4    33    34   ar
     5    34    35   ar
     6    35    21    1
     7    21    22   ar
     8    22    23   ar
     9    23    24   ar
    10    24    25   ar
    11    25    26   ar
    12    26    20    1
    13    20     1    1
    14     1     2   ar
    15     2     3   ar
    16     3     6    1
    17     6     7   ar
    18     7     8   ar
    19     8     9   ar
    20     9    12    1
    21    12    13    1
    22    12    14    1
    23    12    15    1
    24     9    10   ar
    25    10    11   ar
    26    11    16    1
    27    16    17    1
    28    16    18    1
    29    16    19    1
    30     3     4   ar
    31     4     5   ar
    32    26    27   ar
    33    27    28   ar
    34    28    29   ar
    35    35    36   ar
    36    36    37    1
    37    36    31   ar
    38    29    21   ar
    39    28    23    1
    40     5     1   ar
    41    11     6   ar
@<TRIPOS>MOLECULE
*****
 37 41 0 0 0
SMALL
GASTEIGER

@<TRIPOS>ATOM
      1 C         144.1738  142.1413  160.8807 C.ar    1  UNL1        0.1789
      2 C         143.2865  141.9036  162.0665 C.ar    1  UNL1        0.0601
      3 C         144.1619  141.6222  163.2515 C.ar    1  UNL1        0.1227
      4 N         145.5904  141.6860  162.7981 N.ar    1  UNL1       -0.0773
      5 O         145.5977  142.0069  161.3329 O.2     1  UNL1       -0.3557
      6 C         143.6916  141.3285  164.6453 C.ar    1  UNL1        0.0248
      7 C         143.3828  139.9178  165.0510 C.ar    1  UNL1        0.0015
      8 C         142.9124  139.6240  166.4447 C.ar    1  UNL1        0.0039
      9 C         142.7509  140.7411  167.4328 C.ar    1  UNL1        0.0714
     10 C         143.0597  142.1518  167.0271 C.ar    1  UNL1        0.0078
     11 C         143.5300  142.4455  165.6333 C.ar    1  UNL1        0.0729
     12 C         142.2805  140.4475  168.8266 C.3     1  UNL1        0.4186
     13 F         141.8102  140.1538  170.2202 F       1  UNL1       -0.1659
     14 F         143.4555  141.1971  169.3810 F       1  UNL1       -0.1659
     15 F         141.1056  139.6979  168.2721 F       1  UNL1       -0.1659
     16 C         143.8388  143.8562  165.2275 C.3     1  UNL1        0.4186
     17 F         144.1477  145.2668  164.8218 F       1  UNL1       -0.1659
     18 F         145.2193  143.7180  165.7980 F       1  UNL1       -0.1659
     19 F         142.4584  143.9943  164.6571 F       1  UNL1       -0.1659
     20 C         143.7174  142.4580  159.4874 C.3     1  UNL1        0.1942
     21 C         143.1904  136.9788  156.2534 C.ar    1  UNL1        0.1646
     22 N         143.8260  138.0655  155.4378 N.ar    1  UNL1       -0.2233
     23 C         143.9005  139.2995  156.2873 C.ar    1  UNL1        0.1229
     24 C         144.4290  140.6762  156.0133 C.ar    1  UNL1        0.1408
     25 N         144.3680  141.7290  157.0800 N.ar    1  UNL1       -0.1656
     26 N         143.7784  141.4051  158.4207 N.ar    1  UNL1       -0.2400
     27 C         143.2499  140.0283  158.6947 C.ar    1  UNL1        0.1162
     28 C         143.3109  138.9755  157.6280 C.ar    1  UNL1        0.1209
     29 N         142.8720  137.5413  157.6070 N.ar    1  UNL1       -0.2234
     30 F         142.8719  131.8944  157.2764 F       1  UNL1       -0.2018
     31 C         142.7612  133.0339  156.3072 C.ar    1  UNL1        0.1675
     32 C         142.3806  132.7706  154.8804 C.ar    1  UNL1        0.0320
     33 C         142.2700  133.9101  153.9113 C.ar    1  UNL1        0.0026
     34 C         142.5399  135.3128  154.3689 C.ar    1  UNL1        0.0054
     35 C         142.9205  135.5761  155.7957 C.ar    1  UNL1        0.0655
     36 C         143.0311  134.4366  156.7649 C.ar    1  UNL1        0.1703
     37 F         143.4117  134.6999  158.1918 F       1  UNL1       -0.2017
@<TRIPOS>BOND
     1    30    31    1
     2    31    32   ar
     3    32    33   ar
     4    33    34   ar
     5    34    35   ar
     6    35    21    1
     7    21    22   ar
     8    22    23   ar
     9    23    24   ar
    10    24    25   ar
    11    25    26   ar
    12    26    20    1
    13    20     1    1
    14     1     2   ar
    15     2     3   ar
    16     3     6    1
    17     6     7   ar
    18     7     8   ar
    19     8     9   ar
    20     9    12    1
    21    12    13    1
    22    12    14    1
    23    12    15    1
    24     9    10   ar
    25    10    11   ar
    26    11    16    1
    27    16    17    1
    28    16    18    1
    29    16    19    1
    30     3     4   ar
    31     4     5   ar
    32    26    27   ar
    33    27    28   ar
    34    28    29   ar
    35    35    36   ar
    36    36    37    1
    37    36    31   ar
    38    29    21   ar
    39    28    23    1
    40     5     1   ar
    41    11     6   ar
@<TRIPOS>MOLECULE
*****
 37 41 0 0 0
SMALL
GASTEIGER

@<TRIPOS>ATOM
      1 C         141.8299  138.7687  161.5579 C.ar    1  UNL1        0.1789
      2 C         141.7204  139.5992  162.8022 C.ar    1  UNL1        0.0601
      3 C         141.3544  138.6886  163.9366 C.ar    1  UNL1        0.1227
      4 N         141.2375  137.2953  163.3934 N.ar    1  UNL1       -0.0773
      5 O         141.5314  137.3448  161.9233 O.2     1  UNL1       -0.3557
      6 C         141.1423  139.0993  165.3636 C.ar    1  UNL1        0.0248
      7 C         139.7537  139.3443  165.8751 C.ar    1  UNL1        0.0015
      8 C         139.5416  139.7550  167.3022 C.ar    1  UNL1        0.0039
      9 C         140.7183  139.9205  168.2177 C.ar    1  UNL1        0.0714
     10 C         142.1069  139.6754  167.7062 C.ar    1  UNL1        0.0078
     11 C         142.3189  139.2648  166.2791 C.ar    1  UNL1        0.0729
     12 C         140.5063  140.3312  169.6448 C.3     1  UNL1        0.4186
     13 F         140.2943  140.7417  171.0717 F       1  UNL1       -0.1659
     14 F         139.6997  141.5097  169.1858 F       1  UNL1       -0.1659
     15 F         141.3127  139.1527  170.1037 F       1  UNL1       -0.1659
     16 C         143.7075  139.0197  165.7676 C.3     1  UNL1        0.4186
     17 F         145.0961  138.7747  165.2561 F       1  UNL1       -0.1659
     18 F         143.7871  140.4433  165.3016 F       1  UNL1       -0.1659
     19 F         143.6279  137.5962  166.2336 F       1  UNL1       -0.1659
     20 C         142.1768  139.2734  160.1887 C.3     1  UNL1        0.1942
     21 C         141.9345  135.0946  155.3683 C.ar    1  UNL1        0.1646
     22 N         140.7536  136.0194  155.3834 N.ar    1  UNL1       -0.2233
     23 C         140.9104  136.9525  156.5473 C.ar    1  UNL1        0.1229
     24 C         140.0547  138.0741  157.0569 C.ar    1  UNL1        0.1408
     25 N         140.4768  138.8477  158.2706 N.ar    1  UNL1       -0.1656
     26 N         141.7547  138.4997  158.9749 N.ar    1  UNL1       -0.2400
     27 C         142.6104  137.3781  158.4653 C.ar    1  UNL1        0.1162
     28 C         142.1883  136.6045  157.2516 C.ar    1  UNL1        0.1209
     29 N         142.8212  135.4563  156.5229 N.ar    1  UNL1       -0.2234
     30 F         144.0405  130.4983  154.1690 F       1  UNL1       -0.2018
     31 C         143.2378  131.7022  153.7736 C.ar    1  UNL1        0.1675
     32 C         142.6855  131.8119  152.3834 C.ar    1  UNL1        0.0320
     33 C         141.8829  133.0158  151.9881 C.ar    1  UNL1        0.0026
     34 C         141.6325  134.1101  152.9831 C.ar    1  UNL1        0.0054
     35 C         142.1849  134.0004  154.3733 C.ar    1  UNL1        0.0655
     36 C         142.9875  132.7965  154.7686 C.ar    1  UNL1        0.1703
     37 F         143.5399  132.6868  156.1589 F       1  UNL1       -0.2017
@<TRIPOS>BOND
     1    30    31    1
     2    31    32   ar
     3    32    33   ar
     4    33    34   ar
     5    34    35   ar
     6    35    21    1
     7    21    22   ar
     8    22    23   ar
     9    23    24   ar
    10    24    25   ar
    11    25    26   ar
    12    26    20    1
    13    20     1    1
    14     1     2   ar
    15     2     3   ar
    16     3     6    1
    17     6     7   ar
    18     7     8   ar
    19     8     9   ar
    20     9    12    1
    21    12    13    1
    22    12    14    1
    23    12    15    1
    24     9    10   ar
    25    10    11   ar
    26    11    16    1
    27    16    17    1
    28    16    18    1
    29    16    19    1
    30     3     4   ar
    31     4     5   ar
    32    26    27   ar
    33    27    28   ar
    34    28    29   ar
    35    35    36   ar
    36    36    37    1
    37    36    31   ar
    38    29    21   ar
    39    28    23    1
    40     5     1   ar
    41    11     6   ar
@<TRIPOS>MOLECULE
*****
 37 41 0 0 0
SMALL
GASTEIGER

@<TRIPOS>ATOM
      1 C         140.3133  144.5455  160.6960 C.ar    1  UNL1        0.1789
      2 C         140.7273  143.5166  161.7059 C.ar    1  UNL1        0.0601
      3 C         140.9736  144.2185  163.0085 C.ar    1  UNL1        0.1227
      4 N         140.7118  145.6813  162.8036 N.ar    1  UNL1       -0.0773
      5 O         140.3037  145.8833  161.3744 O.2     1  UNL1       -0.3557
      6 C         141.4058  143.5714  164.2909 C.ar    1  UNL1        0.0248
      7 C         142.8531  143.2489  164.5177 C.ar    1  UNL1        0.0015
      8 C         143.2854  142.6018  165.8000 C.ar    1  UNL1        0.0039
      9 C         142.2702  142.2771  166.8556 C.ar    1  UNL1        0.0714
     10 C         140.8230  142.5996  166.6288 C.ar    1  UNL1        0.0078
     11 C         140.3908  143.2467  165.3464 C.ar    1  UNL1        0.0729
     12 C         142.7024  141.6299  168.1379 C.3     1  UNL1        0.4186
     13 F         143.1346  140.9828  169.4202 F       1  UNL1       -0.1659
     14 F         143.7985  142.6441  168.2803 F       1  UNL1       -0.1659
     15 F         141.6064  140.6159  167.9956 F       1  UNL1       -0.1659
     16 C         138.9435  143.5692  165.1196 C.3     1  UNL1        0.4186
     17 F         137.4963  143.8918  164.8929 F       1  UNL1       -0.1659
     18 F         139.1763  144.9645  165.6188 F       1  UNL1       -0.1659
     19 F         138.7108  142.1740  164.6205 F       1  UNL1       -0.1659
     20 C         139.9693  144.2827  159.2599 C.3     1  UNL1        0.1942
     21 C         140.6831  138.3690  156.9629 C.ar    1  UNL1        0.1646
     22 N         139.2622  138.6690  157.3386 N.ar    1  UNL1       -0.2233
     23 C         139.2079  140.0735  157.8625 C.ar    1  UNL1        0.1229
     24 C         138.0744  140.9085  158.3801 C.ar    1  UNL1        0.1408
     25 N         138.3282  142.3115  158.8459 N.ar    1  UNL1       -0.1656
     26 N         139.7155  142.8795  158.7941 N.ar    1  UNL1       -0.2400
     27 C         140.8490  142.0445  158.2765 C.ar    1  UNL1        0.1162
     28 C         140.5952  140.6415  157.8107 C.ar    1  UNL1        0.1209
     29 N         141.5069  139.5881  157.2547 N.ar    1  UNL1       -0.2234
     30 F         144.0870  134.4440  157.0520 F       1  UNL1       -0.2018
     31 C         142.8929  135.1143  156.4397 C.ar    1  UNL1        0.1675
     32 C         142.2068  134.4925  155.2597 C.ar    1  UNL1        0.0320
     33 C         141.0127  135.1628  154.6474 C.ar    1  UNL1        0.0026
     34 C         140.5048  136.4550  155.2152 C.ar    1  UNL1        0.0054
     35 C         141.1910  137.0768  156.3952 C.ar    1  UNL1        0.0655
     36 C         142.3850  136.4065  157.0074 C.ar    1  UNL1        0.1703
     37 F         143.0712  137.0283  158.1875 F       1  UNL1       -0.2017
@<TRIPOS>BOND
     1    30    31    1
     2    31    32   ar
     3    32    33   ar
     4    33    34   ar
     5    34    35   ar
     6    35    21    1
     7    21    22   ar
     8    22    23   ar
     9    23    24   ar
    10    24    25   ar
    11    25    26   ar
    12    26    20    1
    13    20     1    1
    14     1     2   ar
    15     2     3   ar
    16     3     6    1
    17     6     7   ar
    18     7     8   ar
    19     8     9   ar
    20     9    12    1
    21    12    13    1
    22    12    14    1
    23    12    15    1
    24     9    10   ar
    25    10    11   ar
    26    11    16    1
    27    16    17    1
    28    16    18    1
    29    16    19    1
    30     3     4   ar
    31     4     5   ar
    32    26    27   ar
    33    27    28   ar
    34    28    29   ar
    35    35    36   ar
    36    36    37    1
    37    36    31   ar
    38    29    21   ar
    39    28    23    1
    40     5     1   ar
    41    11     6   ar
@<TRIPOS>MOLECULE
*****
 37 41 0 0 0
SMALL
GASTEIGER

@<TRIPOS>ATOM
      1 C         143.6500  141.2383  161.9816 C.ar    1  UNL1        0.1789
      2 C         142.7998  141.3786  163.2093 C.ar    1  UNL1        0.0601
      3 C         143.6219  140.9615  164.3926 C.ar    1  UNL1        0.1227
      4 N         144.9803  140.5634  163.8962 N.ar    1  UNL1       -0.0773
      5 O         144.9976  140.7345  162.4061 O.2     1  UNL1       -0.3557
      6 C         143.1657  140.9453  165.8215 C.ar    1  UNL1        0.0248
      7 C         143.3481  142.1612  166.6808 C.ar    1  UNL1        0.0015
      8 C         142.8920  142.1451  168.1097 C.ar    1  UNL1        0.0039
      9 C         142.2534  140.9130  168.6793 C.ar    1  UNL1        0.0714
     10 C         142.0711  139.6972  167.8200 C.ar    1  UNL1        0.0078
     11 C         142.5272  139.7133  166.3911 C.ar    1  UNL1        0.0729
     12 C         141.7973  140.8969  170.1082 C.3     1  UNL1        0.4186
     13 F         141.3412  140.8807  171.5370 F       1  UNL1       -0.1659
     14 F         141.5478  142.3746  170.0453 F       1  UNL1       -0.1659
     15 F         142.0468  139.4192  170.1711 F       1  UNL1       -0.1659
     16 C         142.3449  138.4975  165.5318 C.3     1  UNL1        0.4186
     17 F         142.1626  137.2817  164.6725 F       1  UNL1       -0.1659
     18 F         143.7011  138.0045  165.9416 F       1  UNL1       -0.1659
     19 F         140.9888  138.9905  165.1220 F       1  UNL1       -0.1659
     20 C         143.2270  141.5475  160.5761 C.3     1  UNL1        0.1942
     21 C         142.0450  136.6059  156.7109 C.ar    1  UNL1        0.1646
     22 N         140.7882  137.2584  157.2055 N.ar    1  UNL1       -0.2233
     23 C         141.1785  138.3986  158.0986 C.ar    1  UNL1        0.1229
     24 C         140.3633  139.3961  158.8670 C.ar    1  UNL1        0.1408
     25 N         141.0461  140.4457  159.6928 N.ar    1  UNL1       -0.1656
     26 N         142.5441  140.4978  159.7503 N.ar    1  UNL1       -0.2400
     27 C         143.3593  139.5003  158.9819 C.ar    1  UNL1        0.1162
     28 C         142.6765  138.4507  158.1561 C.ar    1  UNL1        0.1209
     29 N         143.2120  137.3428  157.2984 N.ar    1  UNL1       -0.2234
     30 F         143.1714  131.5983  155.9011 F       1  UNL1       -0.2018
     31 C         142.6846  132.9202  155.3855 C.ar    1  UNL1        0.1675
     32 C         142.2742  133.0601  153.9496 C.ar    1  UNL1        0.0320
     33 C         141.7874  134.3819  153.4341 C.ar    1  UNL1        0.0026
     34 C         141.7110  135.5638  154.3545 C.ar    1  UNL1        0.0054
     35 C         142.1214  135.4239  155.7905 C.ar    1  UNL1        0.0655
     36 C         142.6082  134.1021  156.3059 C.ar    1  UNL1        0.1703
     37 F         143.0186  133.9622  157.7420 F       1  UNL1       -0.2017
@<TRIPOS>BOND
     1    30    31    1
     2    31    32   ar
     3    32    33   ar
     4    33    34   ar
     5    34    35   ar
     6    35    21    1
     7    21    22   ar
     8    22    23   ar
     9    23    24   ar
    10    24    25   ar
    11    25    26   ar
    12    26    20    1
    13    20     1    1
    14     1     2   ar
    15     2     3   ar
    16     3     6    1
    17     6     7   ar
    18     7     8   ar
    19     8     9   ar
    20     9    12    1
    21    12    13    1
    22    12    14    1
    23    12    15    1
    24     9    10   ar
    25    10    11   ar
    26    11    16    1
    27    16    17    1
    28    16    18    1
    29    16    19    1
    30     3     4   ar
    31     4     5   ar
    32    26    27   ar
    33    27    28   ar
    34    28    29   ar
    35    35    36   ar
    36    36    37    1
    37    36    31   ar
    38    29    21   ar
    39    28    23    1
    40     5     1   ar
    41    11     6   ar
