@<TRIPOS>MOLECULE
*****
 24 26 0 0 0
SMALL
GASTEIGER

@<TRIPOS>ATOM
      1 C         138.4761  145.0691  165.8168 C.3     1  UNL1        0.0722
      2 C         139.1907  144.5846  164.5902 C.ar    1  UNL1        0.1251
      3 N         139.1894  145.2530  163.2473 N.ar    1  UNL1       -0.2227
      4 C         140.0300  144.4281  162.3183 C.ar    1  UNL1        0.1360
      5 C         140.5508  143.2501  163.0870 C.ar    1  UNL1        0.0682
      6 C         141.4351  142.1657  162.5464 C.3     1  UNL1        0.0527
      7 N         140.0321  143.3468  164.4911 N.ar    1  UNL1       -0.2946
      8 C         140.3066  142.3761  165.6012 C.ar    1  UNL1        0.0924
      9 C         141.5413  142.5253  166.4399 C.ar    1  UNL1        0.0221
     10 C         141.8157  141.5546  167.5499 C.ar    1  UNL1        0.0313
     11 C         140.8556  140.4346  167.8214 C.ar    1  UNL1        0.1425
     12 F         141.1301  139.4639  168.9315 F       1  UNL1       -0.2041
     13 C         139.6209  140.2853  166.9827 C.ar    1  UNL1        0.0608
     14 C         139.3465  141.2561  165.8726 C.ar    1  UNL1        0.1583
     15 F         138.1117  141.1068  165.0339 F       1  UNL1       -0.2026
     16 C         140.3021  144.7287  160.8740 C.1     1  UNL1       -0.0393
     17 C         140.5740  145.0292  159.4299 C.1     1  UNL1       -0.0581
     18 C         140.8460  145.3298  157.9856 C.ar    1  UNL1        0.0459
     19 C         141.9924  144.6639  157.2840 C.ar    1  UNL1        0.0290
     20 C         142.2644  144.9645  155.8398 C.ar    1  UNL1        0.1005
     21 N         141.3900  145.9309  155.0973 N.ar    1  UNL1       -0.2324
     22 C         140.2436  146.5968  155.7989 C.ar    1  UNL1        0.1390
     23 CL        139.3691  147.5632  155.0564 Cl      1  UNL1       -0.0613
     24 C         139.9716  146.2962  157.2431 C.ar    1  UNL1        0.0390
@<TRIPOS>BOND
     1     1     2    1
     2     2     3   ar
     3     3     4   ar
     4     4    16    1
     5    16    17    3
     6    17    18    1
     7    18    19   ar
     8    19    20   ar
     9    20    21   ar
    10    21    22   ar
    11    22    23    1
    12    22    24   ar
    13     4     5   ar
    14     5     6    1
    15     5     7   ar
    16     7     8    1
    17     8     9   ar
    18     9    10   ar
    19    10    11   ar
    20    11    12    1
    21    11    13   ar
    22    13    14   ar
    23    14    15    1
    24     7     2   ar
    25    14     8   ar
    26    24    18   ar
@<TRIPOS>MOLECULE
*****
 24 26 0 0 0
SMALL
GASTEIGER

@<TRIPOS>ATOM
      1 C         140.9148  137.3180  163.0791 C.3     1  UNL1        0.0722
      2 C         140.0220  138.3806  162.5101 C.ar    1  UNL1        0.1251
      3 N         139.7450  138.6130  161.0542 N.ar    1  UNL1       -0.2227
      4 C         138.8012  139.7734  160.9415 C.ar    1  UNL1        0.1360
      5 C         138.4949  140.2582  162.3275 C.ar    1  UNL1        0.0682
      6 C         137.5925  141.4028  162.6819 C.3     1  UNL1        0.0527
      7 N         139.2494  139.3974  163.2970 N.ar    1  UNL1       -0.2946
      8 C         139.2339  139.5302  164.7910 C.ar    1  UNL1        0.0924
      9 C         138.1807  138.8277  165.5956 C.ar    1  UNL1        0.0221
     10 C         138.1653  138.9605  167.0895 C.ar    1  UNL1        0.0313
     11 C         139.2031  139.7956  167.7791 C.ar    1  UNL1        0.1425
     12 F         139.1877  139.9284  169.2731 F       1  UNL1       -0.2041
     13 C         140.2564  140.4982  166.9745 C.ar    1  UNL1        0.0608
     14 C         140.2717  140.3654  165.4805 C.ar    1  UNL1        0.1583
     15 F         141.3250  141.0679  164.6759 F       1  UNL1       -0.2026
     16 C         138.2589  140.3481  159.6664 C.1     1  UNL1       -0.0393
     17 C         137.7166  140.9228  158.3915 C.1     1  UNL1       -0.0581
     18 C         137.1743  141.4975  157.1164 C.ar    1  UNL1        0.0459
     19 C         136.2513  140.6829  156.2595 C.ar    1  UNL1        0.0290
     20 C         135.7091  141.2576  154.9845 C.ar    1  UNL1        0.1005
     21 N         136.0899  142.6469  154.5664 N.ar    1  UNL1       -0.2324
     22 C         137.0129  143.4615  155.4233 C.ar    1  UNL1        0.1390
     23 CL        137.3937  144.8508  155.0052 Cl      1  UNL1       -0.0613
     24 C         137.5552  142.8868  156.6983 C.ar    1  UNL1        0.0390
@<TRIPOS>BOND
     1     1     2    1
     2     2     3   ar
     3     3     4   ar
     4     4    16    1
     5    16    17    3
     6    17    18    1
     7    18    19   ar
     8    19    20   ar
     9    20    21   ar
    10    21    22   ar
    11    22    23    1
    12    22    24   ar
    13     4     5   ar
    14     5     6    1
    15     5     7   ar
    16     7     8    1
    17     8     9   ar
    18     9    10   ar
    19    10    11   ar
    20    11    12    1
    21    11    13   ar
    22    13    14   ar
    23    14    15    1
    24     7     2   ar
    25    14     8   ar
    26    24    18   ar
@<TRIPOS>MOLECULE
*****
 24 26 0 0 0
SMALL
GASTEIGER

@<TRIPOS>ATOM
      1 C         138.8030  138.7205  164.6423 C.3     1  UNL1        0.0722
      2 C         139.5307  139.1386  163.3990 C.ar    1  UNL1        0.1251
      3 N         140.0847  138.2199  162.3506 N.ar    1  UNL1       -0.2227
      4 C         140.7285  139.0624  161.2895 C.ar    1  UNL1        0.1360
      5 C         140.5723  140.5017  161.6821 C.ar    1  UNL1        0.0682
      6 C         141.0693  141.6858  160.9071 C.3     1  UNL1        0.0527
      7 N         139.8321  140.5488  162.9859 N.ar    1  UNL1       -0.2946
      8 C         139.4587  141.7883  163.7434 C.ar    1  UNL1        0.0924
      9 C         140.4940  142.5150  164.5497 C.ar    1  UNL1        0.0221
     10 C         140.1206  143.7546  165.3073 C.ar    1  UNL1        0.0313
     11 C         138.7119  144.2676  165.2586 C.ar    1  UNL1        0.1425
     12 F         138.3386  145.5073  166.0162 F       1  UNL1       -0.2041
     13 C         137.6765  143.5410  164.4523 C.ar    1  UNL1        0.0608
     14 C         138.0500  142.3014  163.6947 C.ar    1  UNL1        0.1583
     15 F         137.0146  141.5747  162.8884 F       1  UNL1       -0.2026
     16 C         141.4090  138.5547  160.0529 C.1     1  UNL1       -0.0393
     17 C         142.0894  138.0470  158.8163 C.1     1  UNL1       -0.0581
     18 C         142.7699  137.5392  157.5797 C.ar    1  UNL1        0.0459
     19 C         143.2685  138.5063  156.5472 C.ar    1  UNL1        0.0290
     20 C         143.9490  137.9985  155.3106 C.ar    1  UNL1        0.1005
     21 N         144.1308  136.5236  155.1066 N.ar    1  UNL1       -0.2324
     22 C         143.6322  135.5565  156.1391 C.ar    1  UNL1        0.1390
     23 CL        143.8141  134.0816  155.9350 Cl      1  UNL1       -0.0613
     24 C         142.9518  136.0643  157.3756 C.ar    1  UNL1        0.0390
@<TRIPOS>BOND
     1     1     2    1
     2     2     3   ar
     3     3     4   ar
     4     4    16    1
     5    16    17    3
     6    17    18    1
     7    18    19   ar
     8    19    20   ar
     9    20    21   ar
    10    21    22   ar
    11    22    23    1
    12    22    24   ar
    13     4     5   ar
    14     5     6    1
    15     5     7   ar
    16     7     8    1
    17     8     9   ar
    18     9    10   ar
    19    10    11   ar
    20    11    12    1
    21    11    13   ar
    22    13    14   ar
    23    14    15    1
    24     7     2   ar
    25    14     8   ar
    26    24    18   ar
@<TRIPOS>MOLECULE
*****
 24 26 0 0 0
SMALL
GASTEIGER

@<TRIPOS>ATOM
      1 C         139.0525  139.8515  166.6626 C.3     1  UNL1        0.0722
      2 C         139.5080  140.8642  165.6543 C.ar    1  UNL1        0.1251
      3 N         139.0965  140.9200  164.2128 N.ar    1  UNL1       -0.2227
      4 C         139.7892  142.0893  163.5780 C.ar    1  UNL1        0.1360
      5 C         140.6288  142.7561  164.6270 C.ar    1  UNL1        0.0682
      6 C         141.4908  143.9674  164.4277 C.3     1  UNL1        0.0527
      7 N         140.4550  141.9990  165.9102 N.ar    1  UNL1       -0.2946
      8 C         141.1127  142.3202  167.2194 C.ar    1  UNL1        0.0924
      9 C         140.3266  142.9841  168.3108 C.ar    1  UNL1        0.0221
     10 C         140.9843  143.3054  169.6200 C.ar    1  UNL1        0.0313
     11 C         142.4283  142.9627  169.8379 C.ar    1  UNL1        0.1425
     12 F         143.0860  143.2840  171.1472 F       1  UNL1       -0.2041
     13 C         143.2146  142.2988  168.7465 C.ar    1  UNL1        0.0608
     14 C         142.5567  141.9776  167.4373 C.ar    1  UNL1        0.1583
     15 F         143.3430  141.3137  166.3459 F       1  UNL1       -0.2026
     16 C         139.6642  142.5166  162.1456 C.1     1  UNL1       -0.0393
     17 C         139.5392  142.9440  160.7132 C.1     1  UNL1       -0.0581
     18 C         139.4142  143.3713  159.2808 C.ar    1  UNL1        0.0459
     19 C         138.5266  142.6062  158.3446 C.ar    1  UNL1        0.0290
     20 C         138.4016  143.0336  156.9122 C.ar    1  UNL1        0.1005
     21 N         139.1643  144.2261  156.4161 N.ar    1  UNL1       -0.2324
     22 C         140.0520  144.9913  157.3523 C.ar    1  UNL1        0.1390
     23 CL        140.8147  146.1838  156.8561 Cl      1  UNL1       -0.0613
     24 C         140.1770  144.5639  158.7846 C.ar    1  UNL1        0.0390
@<TRIPOS>BOND
     1     1     2    1
     2     2     3   ar
     3     3     4   ar
     4     4    16    1
     5    16    17    3
     6    17    18    1
     7    18    19   ar
     8    19    20   ar
     9    20    21   ar
    10    21    22   ar
    11    22    23    1
    12    22    24   ar
    13     4     5   ar
    14     5     6    1
    15     5     7   ar
    16     7     8    1
    17     8     9   ar
    18     9    10   ar
    19    10    11   ar
    20    11    12    1
    21    11    13   ar
    22    13    14   ar
    23    14    15    1
    24     7     2   ar
    25    14     8   ar
    26    24    18   ar
@<TRIPOS>MOLECULE
*****
 24 26 0 0 0
SMALL
GASTEIGER

@<TRIPOS>ATOM
      1 C         144.0795  144.2457  164.4725 C.3     1  UNL1        0.0722
      2 C         143.2800  143.7656  163.2977 C.ar    1  UNL1        0.1251
      3 N         142.7582  144.6177  162.1788 N.ar    1  UNL1       -0.2227
      4 C         142.0176  143.7278  161.2251 C.ar    1  UNL1        0.1360
      5 C         142.0816  142.3258  161.7544 C.ar    1  UNL1        0.0682
      6 C         141.4724  141.1134  161.1151 C.3     1  UNL1        0.0527
      7 N         142.8618  142.3491  163.0354 N.ar    1  UNL1       -0.2946
      8 C         143.1697  141.1641  163.9018 C.ar    1  UNL1        0.0924
      9 C         142.1509  140.6689  164.8851 C.ar    1  UNL1        0.0221
     10 C         142.4588  139.4839  165.7516 C.ar    1  UNL1        0.0313
     11 C         143.7856  138.7940  165.6348 C.ar    1  UNL1        0.1425
     12 F         144.0936  137.6089  166.5013 F       1  UNL1       -0.2041
     13 C         144.8045  139.2891  164.6514 C.ar    1  UNL1        0.0608
     14 C         144.4964  140.4742  163.7850 C.ar    1  UNL1        0.1583
     15 F         145.5153  140.9693  162.8017 F       1  UNL1       -0.2026
     16 C         141.3331  144.1635  159.9634 C.1     1  UNL1       -0.0393
     17 C         140.6486  144.5992  158.7018 C.1     1  UNL1       -0.0581
     18 C         139.9641  145.0349  157.4402 C.ar    1  UNL1        0.0459
     19 C         139.3726  144.0121  156.5161 C.ar    1  UNL1        0.0290
     20 C         138.6882  144.4479  155.2546 C.ar    1  UNL1        0.1005
     21 N         138.5953  145.9065  154.9170 N.ar    1  UNL1       -0.2324
     22 C         139.1868  146.9293  155.8411 C.ar    1  UNL1        0.1390
     23 CL        139.0938  148.3879  155.5036 Cl      1  UNL1       -0.0613
     24 C         139.8712  146.4935  157.1027 C.ar    1  UNL1        0.0390
@<TRIPOS>BOND
     1     1     2    1
     2     2     3   ar
     3     3     4   ar
     4     4    16    1
     5    16    17    3
     6    17    18    1
     7    18    19   ar
     8    19    20   ar
     9    20    21   ar
    10    21    22   ar
    11    22    23    1
    12    22    24   ar
    13     4     5   ar
    14     5     6    1
    15     5     7   ar
    16     7     8    1
    17     8     9   ar
    18     9    10   ar
    19    10    11   ar
    20    11    12    1
    21    11    13   ar
    22    13    14   ar
    23    14    15    1
    24     7     2   ar
    25    14     8   ar
    26    24    18   ar
@<TRIPOS>MOLECULE
*****
 24 26 0 0 0
SMALL
GASTEIGER

@<TRIPOS>ATOM
      1 C         138.6694  144.7637  165.4570 C.3     1  UNL1        0.0722
      2 C         139.3936  144.4169  164.1901 C.ar    1  UNL1        0.1251
      3 N         139.2443  145.1138  162.8701 N.ar    1  UNL1       -0.2227
      4 C         140.1527  144.4398  161.8849 C.ar    1  UNL1        0.1360
      5 C         140.8633  143.3265  162.5958 C.ar    1  UNL1        0.0682
      6 C         141.8668  142.3915  161.9887 C.3     1  UNL1        0.0527
      7 N         140.3942  143.3123  164.0205 N.ar    1  UNL1       -0.2946
      8 C         140.8462  142.3607  165.0881 C.ar    1  UNL1        0.0924
      9 C         139.9258  141.2766  165.5654 C.ar    1  UNL1        0.0221
     10 C         140.3779  140.3250  166.6330 C.ar    1  UNL1        0.0313
     11 C         141.7504  140.4573  167.2235 C.ar    1  UNL1        0.1425
     12 F         142.2025  139.5056  168.2912 F       1  UNL1       -0.2041
     13 C         142.6709  141.5413  166.7463 C.ar    1  UNL1        0.0608
     14 C         142.2187  142.4930  165.6786 C.ar    1  UNL1        0.1583
     15 F         143.1392  143.5770  165.2014 F       1  UNL1       -0.2026
     16 C         140.3208  144.8136  160.4419 C.1     1  UNL1       -0.0393
     17 C         140.4890  145.1874  158.9990 C.1     1  UNL1       -0.0581
     18 C         140.6572  145.5613  157.5561 C.ar    1  UNL1        0.0459
     19 C         141.6891  144.8678  156.7170 C.ar    1  UNL1        0.0290
     20 C         141.8573  145.2416  155.2741 C.ar    1  UNL1        0.1005
     21 N         140.9934  146.3090  154.6703 N.ar    1  UNL1       -0.2324
     22 C         139.9614  147.0024  155.5094 C.ar    1  UNL1        0.1390
     23 CL        139.0976  148.0698  154.9056 Cl      1  UNL1       -0.0613
     24 C         139.7933  146.6286  156.9523 C.ar    1  UNL1        0.0390
@<TRIPOS>BOND
     1     1     2    1
     2     2     3   ar
     3     3     4   ar
     4     4    16    1
     5    16    17    3
     6    17    18    1
     7    18    19   ar
     8    19    20   ar
     9    20    21   ar
    10    21    22   ar
    11    22    23    1
    12    22    24   ar
    13     4     5   ar
    14     5     6    1
    15     5     7   ar
    16     7     8    1
    17     8     9   ar
    18     9    10   ar
    19    10    11   ar
    20    11    12    1
    21    11    13   ar
    22    13    14   ar
    23    14    15    1
    24     7     2   ar
    25    14     8   ar
    26    24    18   ar
@<TRIPOS>MOLECULE
*****
 24 26 0 0 0
SMALL
GASTEIGER

@<TRIPOS>ATOM
      1 C         139.6256  146.3345  161.7201 C.3     1  UNL1        0.0722
      2 C         139.8552  145.0800  162.5096 C.ar    1  UNL1        0.1251
      3 N         140.0406  144.9950  163.9958 N.ar    1  UNL1       -0.2227
      4 C         140.2398  143.5526  164.3563 C.ar    1  UNL1        0.1360
      5 C         140.1774  142.7462  163.0930 C.ar    1  UNL1        0.0682
      6 C         140.3265  141.2572  162.9894 C.3     1  UNL1        0.0527
      7 N         139.9397  143.6901  161.9518 N.ar    1  UNL1       -0.2946
      8 C         139.8095  143.3108  160.5065 C.ar    1  UNL1        0.0924
      9 C         138.5595  142.6421  160.0162 C.ar    1  UNL1        0.0221
     10 C         138.4292  142.2628  158.5709 C.ar    1  UNL1        0.0313
     11 C         139.5490  142.5521  157.6156 C.ar    1  UNL1        0.1425
     12 F         139.4187  142.1728  156.1702 F       1  UNL1       -0.2041
     13 C         140.7990  143.2209  158.1058 C.ar    1  UNL1        0.0608
     14 C         140.9292  143.6001  159.5513 C.ar    1  UNL1        0.1583
     15 F         142.1793  144.2689  160.0414 F       1  UNL1       -0.2026
     16 C         140.4622  143.0117  165.7376 C.1     1  UNL1       -0.0393
     17 C         140.6846  142.4708  167.1188 C.1     1  UNL1       -0.0581
     18 C         140.9070  141.9298  168.5002 C.ar    1  UNL1        0.0459
     19 C         140.4352  142.7053  169.6943 C.ar    1  UNL1        0.0290
     20 C         140.6576  142.1644  171.0755 C.ar    1  UNL1        0.1005
     21 N         141.3519  140.8480  171.2627 N.ar    1  UNL1       -0.2324
     22 C         141.8238  140.0725  170.0686 C.ar    1  UNL1        0.1390
     23 CL        142.5181  138.7561  170.2557 Cl      1  UNL1       -0.0613
     24 C         141.6014  140.6134  168.6873 C.ar    1  UNL1        0.0390
@<TRIPOS>BOND
     1     1     2    1
     2     2     3   ar
     3     3     4   ar
     4     4    16    1
     5    16    17    3
     6    17    18    1
     7    18    19   ar
     8    19    20   ar
     9    20    21   ar
    10    21    22   ar
    11    22    23    1
    12    22    24   ar
    13     4     5   ar
    14     5     6    1
    15     5     7   ar
    16     7     8    1
    17     8     9   ar
    18     9    10   ar
    19    10    11   ar
    20    11    12    1
    21    11    13   ar
    22    13    14   ar
    23    14    15    1
    24     7     2   ar
    25    14     8   ar
    26    24    18   ar
@<TRIPOS>MOLECULE
*****
 24 26 0 0 0
SMALL
GASTEIGER

@<TRIPOS>ATOM
      1 C         145.7316  141.5970  163.9008 C.3     1  UNL1        0.0722
      2 C         144.6267  140.7841  163.2940 C.ar    1  UNL1        0.1251
      3 N         144.5268  140.3658  161.8569 N.ar    1  UNL1       -0.2227
      4 C         143.2659  139.5699  161.6925 C.ar    1  UNL1        0.1360
      5 C         142.5866  139.4964  163.0278 C.ar    1  UNL1        0.0682
      6 C         141.2935  138.7956  163.3217 C.3     1  UNL1        0.0527
      7 N         143.4276  140.2468  164.0176 N.ar    1  UNL1       -0.2946
      8 C         143.1230  140.4281  165.4750 C.ar    1  UNL1        0.0924
      9 C         142.8558  141.7996  166.0206 C.ar    1  UNL1        0.0221
     10 C         142.5512  141.9809  167.4780 C.ar    1  UNL1        0.0313
     11 C         142.5138  140.7907  168.3901 C.ar    1  UNL1        0.1425
     12 F         142.2092  140.9720  169.8476 F       1  UNL1       -0.2041
     13 C         142.7810  139.4191  167.8447 C.ar    1  UNL1        0.0608
     14 C         143.0856  139.2379  166.3871 C.ar    1  UNL1        0.1583
     15 F         143.3528  137.8663  165.8417 F       1  UNL1       -0.2026
     16 C         142.7713  138.9555  160.4166 C.1     1  UNL1       -0.0393
     17 C         142.2766  138.3411  159.1408 C.1     1  UNL1       -0.0581
     18 C         141.7820  137.7266  157.8649 C.ar    1  UNL1        0.0459
     19 C         140.3627  137.9417  157.4298 C.ar    1  UNL1        0.0290
     20 C         139.8681  137.3273  156.1539 C.ar    1  UNL1        0.1005
     21 N         140.7928  136.4977  155.3132 N.ar    1  UNL1       -0.2324
     22 C         142.2121  136.2826  155.7483 C.ar    1  UNL1        0.1390
     23 CL        143.1367  135.4531  154.9076 Cl      1  UNL1       -0.0613
     24 C         142.7066  136.8971  157.0242 C.ar    1  UNL1        0.0390
@<TRIPOS>BOND
     1     1     2    1
     2     2     3   ar
     3     3     4   ar
     4     4    16    1
     5    16    17    3
     6    17    18    1
     7    18    19   ar
     8    19    20   ar
     9    20    21   ar
    10    21    22   ar
    11    22    23    1
    12    22    24   ar
    13     4     5   ar
    14     5     6    1
    15     5     7   ar
    16     7     8    1
    17     8     9   ar
    18     9    10   ar
    19    10    11   ar
    20    11    12    1
    21    11    13   ar
    22    13    14   ar
    23    14    15    1
    24     7     2   ar
    25    14     8   ar
    26    24    18   ar
@<TRIPOS>MOLECULE
*****
 24 26 0 0 0
SMALL
GASTEIGER

@<TRIPOS>ATOM
      1 C         141.9448  145.3801  163.7500 C.3     1  UNL1        0.0722
      2 C         142.5604  144.2739  162.9454 C.ar    1  UNL1        0.1251
      3 N         143.0131  144.3681  161.5184 N.ar    1  UNL1       -0.2227
      4 C         143.5638  143.0316  161.1177 C.ar    1  UNL1        0.1360
      5 C         143.4514  142.1114  162.2969 C.ar    1  UNL1        0.0682
      6 C         143.8834  140.6756  162.3391 C.3     1  UNL1        0.0527
      7 N         142.8313  142.8791  163.4265 N.ar    1  UNL1       -0.2946
      8 C         142.5342  142.3458  164.7966 C.ar    1  UNL1        0.0924
      9 C         141.3398  141.4654  165.0161 C.ar    1  UNL1        0.0221
     10 C         141.0427  140.9321  166.3862 C.ar    1  UNL1        0.0313
     11 C         141.9401  141.2791  167.5369 C.ar    1  UNL1        0.1425
     12 F         141.6431  140.7458  168.9071 F       1  UNL1       -0.2041
     13 C         143.1347  142.1595  167.3175 C.ar    1  UNL1        0.0608
     14 C         143.4316  142.6928  165.9473 C.ar    1  UNL1        0.1583
     15 F         144.6262  143.5732  165.7279 F       1  UNL1       -0.2026
     16 C         144.1278  142.6776  159.7736 C.1     1  UNL1       -0.0393
     17 C         144.6918  142.3235  158.4295 C.1     1  UNL1       -0.0581
     18 C         145.2558  141.9695  157.0854 C.ar    1  UNL1        0.0459
     19 C         144.3690  141.3716  156.0337 C.ar    1  UNL1        0.0290
     20 C         144.9331  141.0176  154.6897 C.ar    1  UNL1        0.1005
     21 N         146.3839  141.2615  154.3973 N.ar    1  UNL1       -0.2324
     22 C         147.2708  141.8594  155.4490 C.ar    1  UNL1        0.1390
     23 CL        148.7216  142.1033  155.1566 Cl      1  UNL1       -0.0613
     24 C         146.7067  142.2134  156.7930 C.ar    1  UNL1        0.0390
@<TRIPOS>BOND
     1     1     2    1
     2     2     3   ar
     3     3     4   ar
     4     4    16    1
     5    16    17    3
     6    17    18    1
     7    18    19   ar
     8    19    20   ar
     9    20    21   ar
    10    21    22   ar
    11    22    23    1
    12    22    24   ar
    13     4     5   ar
    14     5     6    1
    15     5     7   ar
    16     7     8    1
    17     8     9   ar
    18     9    10   ar
    19    10    11   ar
    20    11    12    1
    21    11    13   ar
    22    13    14   ar
    23    14    15    1
    24     7     2   ar
    25    14     8   ar
    26    24    18   ar
