@<TRIPOS>MOLECULE
*****
 33 36 0 0 0
SMALL
GASTEIGER

@<TRIPOS>ATOM
      1 C         139.3942  139.1369  157.9466 C.3     1  UNL1        0.1201
      2 N         139.3319  140.3347  158.8475 N.am    1  UNL1       -0.2538
      3 C         139.3583  141.6678  158.1605 C.2     1  UNL1        0.2712
      4 O         139.4436  141.6270  156.6635 O.2     1  UNL1       -0.2705
      5 C         139.3108  143.0364  158.7726 C.3     1  UNL1        0.2553
      6 N         139.2250  143.4099  160.2228 N.2     1  UNL1       -0.2434
      7 C         139.1656  142.5069  161.4191 C.2     1  UNL1        0.0795
      8 C         139.1774  141.0075  161.4607 C.ar    1  UNL1        0.0310
      9 C         139.1022  140.4978  162.8694 C.ar    1  UNL1        0.0027
     10 C         139.1011  139.0213  163.1336 C.ar    1  UNL1        0.0001
     11 C         139.1751  138.0545  161.9891 C.ar    1  UNL1        0.0013
     12 C         139.2502  138.5643  160.5804 C.ar    1  UNL1        0.0149
     13 C         139.2513  140.0408  160.3162 C.ar    1  UNL1        0.0554
     14 C         139.0837  143.1943  162.7499 C.ar    1  UNL1        0.0174
     15 C         137.7551  143.6450  163.2807 C.ar    1  UNL1        0.0015
     16 C         137.6732  144.3324  164.6114 C.ar    1  UNL1        0.0000
     17 C         138.9199  144.5689  165.4114 C.ar    1  UNL1        0.0000
     18 C         140.2484  144.1182  164.8806 C.ar    1  UNL1        0.0000
     19 C         140.3304  143.4309  163.5499 C.ar    1  UNL1        0.0015
     20 N         139.3548  144.1832  157.8067 N.am    1  UNL1       -0.2762
     21 C         140.5308  145.1143  157.8010 C.2     1  UNL1        0.2476
     22 O         141.6629  144.8985  158.7612 O.2     1  UNL1       -0.2701
     23 H         138.6118  144.3248  157.1765 H       1  UNL1        0.1519
     24 C         140.5748  146.2611  156.8351 C.2     1  UNL1        0.0578
     25 C         139.3109  146.9793  156.4656 C.2     1  UNL1        0.0055
     26 C         139.3549  148.1261  155.4997 C.ar    1  UNL1        0.0108
     27 C         139.9521  147.9364  154.1369 C.ar    1  UNL1        0.0017
     28 C         139.9961  149.0832  153.1711 C.ar    1  UNL1        0.0114
     29 C         139.4429  150.4198  153.5680 C.ar    1  UNL1        0.0585
     30 CL        139.4869  151.5666  152.6021 Cl      1  UNL1       -0.0822
     31 C         138.8456  150.6095  154.9309 C.ar    1  UNL1        0.0228
     32 C         138.8016  149.4627  155.8967 C.ar    1  UNL1        0.0585
     33 CL        138.2044  149.6525  157.2595 Cl      1  UNL1       -0.0822
@<TRIPOS>BOND
     1     1     2    1
     2     2     3   am
     3     3     4    2
     4     3     5    1
     5     5    20    1
     6    20    21   am
     7    21    22    2
     8    21    24    1
     9    24    25    2
    10    25    26    1
    11    26    27   ar
    12    27    28   ar
    13    28    29   ar
    14    29    30    1
    15    29    31   ar
    16    31    32   ar
    17    32    33    1
    18     5     6    1
    19     6     7    2
    20     7    14    1
    21    14    15   ar
    22    15    16   ar
    23    16    17   ar
    24    17    18   ar
    25    18    19   ar
    26     7     8    1
    27     8     9   ar
    28     9    10   ar
    29    10    11   ar
    30    11    12   ar
    31    12    13   ar
    32    13     2    1
    33    32    26   ar
    34    19    14   ar
    35    13     8   ar
    36    20    23    1
@<TRIPOS>MOLECULE
*****
 33 36 0 0 0
SMALL
GASTEIGER

@<TRIPOS>ATOM
      1 C         138.2960  137.9719  166.1570 C.3     1  UNL1        0.1201
      2 N         139.1653  138.9639  165.4426 N.am    1  UNL1       -0.2538
      3 C         139.3589  138.7213  163.9751 C.2     1  UNL1        0.2712
      4 O         138.6578  137.5190  163.4160 O.2     1  UNL1       -0.2705
      5 C         140.1611  139.5223  162.9927 C.3     1  UNL1        0.2553
      6 N         140.9678  140.7635  163.2352 N.2     1  UNL1       -0.2434
      7 C         141.1714  141.5103  164.5201 C.2     1  UNL1        0.0795
      8 C         140.6187  141.2004  165.8797 C.ar    1  UNL1        0.0310
      9 C         141.0695  142.2065  166.8969 C.ar    1  UNL1        0.0027
     10 C         140.6275  142.0792  168.3246 C.ar    1  UNL1        0.0001
     11 C         139.7347  140.9459  168.7351 C.ar    1  UNL1        0.0013
     12 C         139.2839  139.9399  167.7180 C.ar    1  UNL1        0.0149
     13 C         139.7259  140.0671  166.2903 C.ar    1  UNL1        0.0554
     14 C         142.0429  142.7281  164.4339 C.ar    1  UNL1        0.0174
     15 C         143.4718  142.6612  164.8857 C.ar    1  UNL1        0.0015
     16 C         144.3433  143.8790  164.7995 C.ar    1  UNL1        0.0000
     17 C         143.7861  145.1636  164.2616 C.ar    1  UNL1        0.0000
     18 C         142.3573  145.2304  163.8100 C.ar    1  UNL1        0.0000
     19 C         141.4857  144.0127  163.8961 C.ar    1  UNL1        0.0015
     20 N         140.1561  139.0149  161.5812 N.am    1  UNL1       -0.2762
     21 C         139.2626  139.6518  160.5584 C.2     1  UNL1        0.2476
     22 O         138.3741  140.7962  160.9473 O.2     1  UNL1       -0.2701
     23 H         140.7392  138.2638  161.3259 H       1  UNL1        0.1519
     24 C         139.2575  139.1444  159.1469 C.2     1  UNL1        0.0578
     25 C         140.4431  138.3950  158.6150 C.2     1  UNL1        0.0055
     26 C         140.4380  137.8876  157.2034 C.ar    1  UNL1        0.0108
     27 C         139.2817  138.1970  156.2994 C.ar    1  UNL1        0.0017
     28 C         139.2767  137.6896  154.8878 C.ar    1  UNL1        0.0114
     29 C         140.4278  136.8728  154.3803 C.ar    1  UNL1        0.0585
     30 CL        140.4227  136.3654  152.9687 Cl      1  UNL1       -0.0822
     31 C         141.5841  136.5634  155.2843 C.ar    1  UNL1        0.0228
     32 C         141.5892  137.0708  156.6959 C.ar    1  UNL1        0.0585
     33 CL        142.7455  136.7614  157.5999 Cl      1  UNL1       -0.0822
@<TRIPOS>BOND
     1     1     2    1
     2     2     3   am
     3     3     4    2
     4     3     5    1
     5     5    20    1
     6    20    21   am
     7    21    22    2
     8    21    24    1
     9    24    25    2
    10    25    26    1
    11    26    27   ar
    12    27    28   ar
    13    28    29   ar
    14    29    30    1
    15    29    31   ar
    16    31    32   ar
    17    32    33    1
    18     5     6    1
    19     6     7    2
    20     7    14    1
    21    14    15   ar
    22    15    16   ar
    23    16    17   ar
    24    17    18   ar
    25    18    19   ar
    26     7     8    1
    27     8     9   ar
    28     9    10   ar
    29    10    11   ar
    30    11    12   ar
    31    12    13   ar
    32    13     2    1
    33    32    26   ar
    34    19    14   ar
    35    13     8   ar
    36    20    23    1
@<TRIPOS>MOLECULE
*****
 33 36 0 0 0
SMALL
GASTEIGER

@<TRIPOS>ATOM
      1 C         144.4755  142.4759  158.8315 C.3     1  UNL1        0.1201
      2 N         143.7008  141.3912  159.5195 N.am    1  UNL1       -0.2538
      3 C         143.7327  140.0469  158.8549 C.2     1  UNL1        0.2712
      4 O         144.5351  139.9649  157.5903 O.2     1  UNL1       -0.2705
      5 C         143.0683  138.7736  159.2879 C.3     1  UNL1        0.2553
      6 N         142.2079  138.5302  160.4923 N.2     1  UNL1       -0.2434
      7 C         141.7995  139.5001  161.5612 C.2     1  UNL1        0.0795
      8 C         142.1505  140.9528  161.6898 C.ar    1  UNL1        0.0310
      9 C         141.5318  141.5598  162.9140 C.ar    1  UNL1        0.0027
     10 C         141.7594  143.0084  163.2296 C.ar    1  UNL1        0.0001
     11 C         142.6055  143.8501  162.3210 C.ar    1  UNL1        0.0013
     12 C         143.2242  143.2431  161.0967 C.ar    1  UNL1        0.0149
     13 C         142.9967  141.7944  160.7811 C.ar    1  UNL1        0.0554
     14 C         140.9243  138.9437  162.6449 C.ar    1  UNL1        0.0174
     15 C         139.4446  139.1878  162.6133 C.ar    1  UNL1        0.0015
     16 C         138.5693  138.6313  163.6970 C.ar    1  UNL1        0.0000
     17 C         139.1738  137.8308  164.8122 C.ar    1  UNL1        0.0000
     18 C         140.6534  137.5867  164.8438 C.ar    1  UNL1        0.0000
     19 C         141.5287  138.1431  163.7602 C.ar    1  UNL1        0.0015
     20 N         143.2941  137.5868  158.3988 N.am    1  UNL1       -0.2762
     21 C         142.2669  137.2128  157.3717 C.2     1  UNL1        0.2476
     22 O         141.0138  138.0257  157.2337 O.2     1  UNL1       -0.2701
     23 H         144.1166  137.0533  158.4894 H       1  UNL1        0.1519
     24 C         142.4928  136.0259  156.4827 C.2     1  UNL1        0.0578
     25 C         143.1182  134.7808  157.0384 C.2     1  UNL1        0.0055
     26 C         143.3440  133.5940  156.1493 C.ar    1  UNL1        0.0108
     27 C         142.6104  133.4830  154.8457 C.ar    1  UNL1        0.0017
     28 C         142.8362  132.2962  153.9567 C.ar    1  UNL1        0.0114
     29 C         143.7957  131.2203  154.3712 C.ar    1  UNL1        0.0585
     30 CL        144.0215  130.0335  153.4822 Cl      1  UNL1       -0.0822
     31 C         144.5293  131.3312  155.6749 C.ar    1  UNL1        0.0228
     32 C         144.3035  132.5181  156.5639 C.ar    1  UNL1        0.0585
     33 CL        145.0371  132.6291  157.8675 Cl      1  UNL1       -0.0822
@<TRIPOS>BOND
     1     1     2    1
     2     2     3   am
     3     3     4    2
     4     3     5    1
     5     5    20    1
     6    20    21   am
     7    21    22    2
     8    21    24    1
     9    24    25    2
    10    25    26    1
    11    26    27   ar
    12    27    28   ar
    13    28    29   ar
    14    29    30    1
    15    29    31   ar
    16    31    32   ar
    17    32    33    1
    18     5     6    1
    19     6     7    2
    20     7    14    1
    21    14    15   ar
    22    15    16   ar
    23    16    17   ar
    24    17    18   ar
    25    18    19   ar
    26     7     8    1
    27     8     9   ar
    28     9    10   ar
    29    10    11   ar
    30    11    12   ar
    31    12    13   ar
    32    13     2    1
    33    32    26   ar
    34    19    14   ar
    35    13     8   ar
    36    20    23    1
@<TRIPOS>MOLECULE
*****
 33 36 0 0 0
SMALL
GASTEIGER

@<TRIPOS>ATOM
      1 C         139.8524  146.2439  161.7035 C.3     1  UNL1        0.1201
      2 N         140.5942  144.9601  161.9310 N.am    1  UNL1       -0.2538
      3 C         141.5845  144.5838  160.8690 C.2     1  UNL1        0.2712
      4 O         141.7021  145.5410  159.7201 O.2     1  UNL1       -0.2705
      5 C         142.4728  143.3768  160.8041 C.3     1  UNL1        0.2553
      6 N         142.5902  142.2481  161.7851 N.2     1  UNL1       -0.2434
      7 C         141.8482  142.0477  163.0732 C.2     1  UNL1        0.0795
      8 C         140.8056  142.9263  163.6986 C.ar    1  UNL1        0.0310
      9 C         140.3153  142.3563  164.9965 C.ar    1  UNL1        0.0027
     10 C         139.2669  143.0825  165.7861 C.ar    1  UNL1        0.0001
     11 C         138.7089  144.3787  165.2777 C.ar    1  UNL1        0.0013
     12 C         139.1992  144.9487  163.9798 C.ar    1  UNL1        0.0149
     13 C         140.2476  144.2225  163.1902 C.ar    1  UNL1        0.0554
     14 C         142.1946  140.8040  163.8370 C.ar    1  UNL1        0.0174
     15 C         143.3453  140.8110  164.7994 C.ar    1  UNL1        0.0015
     16 C         143.6917  139.5673  165.5632 C.ar    1  UNL1        0.0000
     17 C         142.8874  138.3168  165.3647 C.ar    1  UNL1        0.0000
     18 C         141.7369  138.3099  164.4025 C.ar    1  UNL1        0.0000
     19 C         141.3904  139.5534  163.6386 C.ar    1  UNL1        0.0015
     20 N         143.3612  143.2866  159.5989 N.am    1  UNL1       -0.2762
     21 C         142.8621  142.6284  158.3469 C.2     1  UNL1        0.2476
     22 O         141.4746  142.0604  158.3000 O.2     1  UNL1       -0.2701
     23 H         144.2718  143.6595  159.6296 H       1  UNL1        0.1519
     24 C         143.7505  142.5383  157.1416 C.2     1  UNL1        0.0578
     25 C         145.1069  141.9078  157.2552 C.2     1  UNL1        0.0055
     26 C         145.9953  141.8176  156.0499 C.ar    1  UNL1        0.0108
     27 C         145.4779  141.2083  154.7807 C.ar    1  UNL1        0.0017
     28 C         146.3663  141.1181  153.5755 C.ar    1  UNL1        0.0114
     29 C         147.7721  141.6372  153.6394 C.ar    1  UNL1        0.0585
     30 CL        148.6605  141.5470  152.4342 Cl      1  UNL1       -0.0822
     31 C         148.2896  142.2466  154.9087 C.ar    1  UNL1        0.0228
     32 C         147.4012  142.3368  156.1139 C.ar    1  UNL1        0.0585
     33 CL        147.9186  142.9461  157.3831 Cl      1  UNL1       -0.0822
@<TRIPOS>BOND
     1     1     2    1
     2     2     3   am
     3     3     4    2
     4     3     5    1
     5     5    20    1
     6    20    21   am
     7    21    22    2
     8    21    24    1
     9    24    25    2
    10    25    26    1
    11    26    27   ar
    12    27    28   ar
    13    28    29   ar
    14    29    30    1
    15    29    31   ar
    16    31    32   ar
    17    32    33    1
    18     5     6    1
    19     6     7    2
    20     7    14    1
    21    14    15   ar
    22    15    16   ar
    23    16    17   ar
    24    17    18   ar
    25    18    19   ar
    26     7     8    1
    27     8     9   ar
    28     9    10   ar
    29    10    11   ar
    30    11    12   ar
    31    12    13   ar
    32    13     2    1
    33    32    26   ar
    34    19    14   ar
    35    13     8   ar
    36    20    23    1
@<TRIPOS>MOLECULE
*****
 33 36 0 0 0
SMALL
GASTEIGER

@<TRIPOS>ATOM
      1 C         139.9116  146.0814  161.3438 C.3     1  UNL1        0.1201
      2 N         140.3448  144.6472  161.4191 N.am    1  UNL1       -0.2538
      3 C         141.3749  144.2249  160.4139 C.2     1  UNL1        0.2712
      4 O         141.8357  145.2925  159.4663 O.2     1  UNL1       -0.2705
      5 C         142.0051  142.8761  160.2310 C.3     1  UNL1        0.2553
      6 N         141.7609  141.6165  161.0081 N.2     1  UNL1       -0.2434
      7 C         140.8261  141.3947  162.1600 C.2     1  UNL1        0.0795
      8 C         139.9047  142.3777  162.8194 C.ar    1  UNL1        0.0310
      9 C         139.1391  141.7430  163.9423 C.ar    1  UNL1        0.0027
     10 C         138.1593  142.5558  164.7355 C.ar    1  UNL1        0.0001
     11 C         137.9450  144.0034  164.4058 C.ar    1  UNL1        0.0013
     12 C         138.7106  144.6380  163.2828 C.ar    1  UNL1        0.0149
     13 C         139.6904  143.8252  162.4896 C.ar    1  UNL1        0.0554
     14 C         140.8108  140.0064  162.7277 C.ar    1  UNL1        0.0174
     15 C         141.8290  139.6040  163.7531 C.ar    1  UNL1        0.0015
     16 C         141.8136  138.2157  164.3208 C.ar    1  UNL1        0.0000
     17 C         140.7800  137.2297  163.8631 C.ar    1  UNL1        0.0000
     18 C         139.7619  137.6320  162.8378 C.ar    1  UNL1        0.0000
     19 C         139.7772  139.0203  162.2700 C.ar    1  UNL1        0.0015
     20 N         143.0129  142.7732  159.1247 N.am    1  UNL1       -0.2762
     21 C         144.4714  142.6409  159.4487 C.2     1  UNL1        0.2476
     22 O         144.9224  142.6115  160.8791 O.2     1  UNL1       -0.2701
     23 H         142.7169  142.7925  158.1859 H       1  UNL1        0.1519
     24 C         145.4792  142.5380  158.3424 C.2     1  UNL1        0.0578
     25 C         145.0479  142.1030  156.9731 C.2     1  UNL1        0.0055
     26 C         146.0556  142.0001  155.8668 C.ar    1  UNL1        0.0108
     27 C         147.5067  142.2557  156.1479 C.ar    1  UNL1        0.0017
     28 C         148.5144  142.1528  155.0416 C.ar    1  UNL1        0.0114
     29 C         148.0711  141.7943  153.6542 C.ar    1  UNL1        0.0585
     30 CL        149.0788  141.6915  152.5479 Cl      1  UNL1       -0.0822
     31 C         146.6200  141.5387  153.3731 C.ar    1  UNL1        0.0228
     32 C         145.6122  141.6416  154.4794 C.ar    1  UNL1        0.0585
     33 CL        144.1612  141.3859  154.1983 Cl      1  UNL1       -0.0822
@<TRIPOS>BOND
     1     1     2    1
     2     2     3   am
     3     3     4    2
     4     3     5    1
     5     5    20    1
     6    20    21   am
     7    21    22    2
     8    21    24    1
     9    24    25    2
    10    25    26    1
    11    26    27   ar
    12    27    28   ar
    13    28    29   ar
    14    29    30    1
    15    29    31   ar
    16    31    32   ar
    17    32    33    1
    18     5     6    1
    19     6     7    2
    20     7    14    1
    21    14    15   ar
    22    15    16   ar
    23    16    17   ar
    24    17    18   ar
    25    18    19   ar
    26     7     8    1
    27     8     9   ar
    28     9    10   ar
    29    10    11   ar
    30    11    12   ar
    31    12    13   ar
    32    13     2    1
    33    32    26   ar
    34    19    14   ar
    35    13     8   ar
    36    20    23    1
@<TRIPOS>MOLECULE
*****
 33 36 0 0 0
SMALL
GASTEIGER

@<TRIPOS>ATOM
      1 C         138.9528  142.5884  158.1036 C.3     1  UNL1        0.1201
      2 N         140.1790  142.7506  158.9521 N.am    1  UNL1       -0.2538
      3 C         141.4851  142.7531  158.2146 C.2     1  UNL1        0.2712
      4 O         141.3924  142.5930  156.7261 O.2     1  UNL1       -0.2705
      5 C         142.8718  142.8945  158.7689 C.3     1  UNL1        0.2553
      6 N         143.2948  143.0684  160.1975 N.2     1  UNL1       -0.2434
      7 C         142.4355  143.1438  161.4246 C.2     1  UNL1        0.0795
      8 C         140.9411  143.0639  161.5264 C.ar    1  UNL1        0.0310
      9 C         140.4814  143.1838  162.9492 C.ar    1  UNL1        0.0027
     10 C         139.0176  143.1287  163.2715 C.ar    1  UNL1        0.0001
     11 C         138.0133  142.9537  162.1712 C.ar    1  UNL1        0.0013
     12 C         138.4729  142.8339  160.7484 C.ar    1  UNL1        0.0149
     13 C         139.9368  142.8890  160.4260 C.ar    1  UNL1        0.0554
     14 C         143.1674  143.3227  162.7217 C.ar    1  UNL1        0.0174
     15 C         143.7328  142.1301  163.4345 C.ar    1  UNL1        0.0015
     16 C         144.4648  142.3090  164.7315 C.ar    1  UNL1        0.0000
     17 C         144.6313  143.6805  165.3157 C.ar    1  UNL1        0.0000
     18 C         144.0660  144.8730  164.6030 C.ar    1  UNL1        0.0000
     19 C         143.3340  144.6942  163.3060 C.ar    1  UNL1        0.0015
     20 N         143.9824  142.8572  157.7613 N.am    1  UNL1       -0.2762
     21 C         144.7098  141.5729  157.4942 C.2     1  UNL1        0.2476
     22 O         144.3267  140.3259  158.2348 O.2     1  UNL1       -0.2701
     23 H         144.2338  143.6756  157.2753 H       1  UNL1        0.1519
     24 C         145.8204  141.5355  156.4866 C.2     1  UNL1        0.0578
     25 C         146.8820  142.5952  156.5009 C.2     1  UNL1        0.0055
     26 C         147.9926  142.5578  155.4933 C.ar    1  UNL1        0.0108
     27 C         149.2105  141.7208  155.7502 C.ar    1  UNL1        0.0017
     28 C         150.3210  141.6834  154.7426 C.ar    1  UNL1        0.0114
     29 C         150.2137  142.4830  153.4781 C.ar    1  UNL1        0.0585
     30 CL        151.3243  142.4456  152.4705 Cl      1  UNL1       -0.0822
     31 C         148.9957  143.3201  153.2211 C.ar    1  UNL1        0.0228
     32 C         147.8852  143.3574  154.2287 C.ar    1  UNL1        0.0585
     33 CL        146.6672  144.1944  153.9718 Cl      1  UNL1       -0.0822
@<TRIPOS>BOND
     1     1     2    1
     2     2     3   am
     3     3     4    2
     4     3     5    1
     5     5    20    1
     6    20    21   am
     7    21    22    2
     8    21    24    1
     9    24    25    2
    10    25    26    1
    11    26    27   ar
    12    27    28   ar
    13    28    29   ar
    14    29    30    1
    15    29    31   ar
    16    31    32   ar
    17    32    33    1
    18     5     6    1
    19     6     7    2
    20     7    14    1
    21    14    15   ar
    22    15    16   ar
    23    16    17   ar
    24    17    18   ar
    25    18    19   ar
    26     7     8    1
    27     8     9   ar
    28     9    10   ar
    29    10    11   ar
    30    11    12   ar
    31    12    13   ar
    32    13     2    1
    33    32    26   ar
    34    19    14   ar
    35    13     8   ar
    36    20    23    1
@<TRIPOS>MOLECULE
*****
 33 36 0 0 0
SMALL
GASTEIGER

@<TRIPOS>ATOM
      1 C         145.1125  142.6499  161.5389 C.3     1  UNL1        0.1201
      2 N         143.9275  141.7838  161.8484 N.am    1  UNL1       -0.2538
      3 C         143.3763  140.9989  160.6951 C.2     1  UNL1        0.2712
      4 O         144.0829  141.1838  159.3850 O.2     1  UNL1       -0.2705
      5 C         142.2118  140.0535  160.6789 C.3     1  UNL1        0.2553
      6 N         141.3110  139.6596  161.8118 N.2     1  UNL1       -0.2434
      7 C         141.3523  140.1138  163.2407 C.2     1  UNL1        0.0795
      8 C         142.3044  141.0741  163.8898 C.ar    1  UNL1        0.0310
      9 C         141.9945  141.2528  165.3465 C.ar    1  UNL1        0.0027
     10 C         142.8307  142.1748  166.1835 C.ar    1  UNL1        0.0001
     11 C         143.9768  142.9181  165.5638 C.ar    1  UNL1        0.0013
     12 C         144.2867  142.7393  164.1071 C.ar    1  UNL1        0.0149
     13 C         143.4505  141.8173  163.2701 C.ar    1  UNL1        0.0554
     14 C         140.3025  139.5306  164.1396 C.ar    1  UNL1        0.0174
     15 C         140.3693  138.0839  164.5305 C.ar    1  UNL1        0.0015
     16 C         139.3195  137.5007  165.4294 C.ar    1  UNL1        0.0000
     17 C         138.2030  138.3642  165.9372 C.ar    1  UNL1        0.0000
     18 C         138.1362  139.8107  165.5463 C.ar    1  UNL1        0.0000
     19 C         139.1859  140.3940  164.6475 C.ar    1  UNL1        0.0015
     20 N         141.9079  139.4180  159.3546 N.am    1  UNL1       -0.2762
     21 C         142.4609  138.0622  159.0288 C.2     1  UNL1        0.2476
     22 O         143.3178  137.3420  160.0273 O.2     1  UNL1       -0.2701
     23 H         141.3455  139.8907  158.6992 H       1  UNL1        0.1519
     24 C         142.1570  137.4267  157.7045 C.2     1  UNL1        0.0578
     25 C         142.9172  136.2108  157.2640 C.2     1  UNL1        0.0055
     26 C         142.6133  135.5753  155.9397 C.ar    1  UNL1        0.0108
     27 C         142.3089  136.4339  154.7481 C.ar    1  UNL1        0.0017
     28 C         142.0050  135.7984  153.4238 C.ar    1  UNL1        0.0114
     29 C         142.0055  134.3043  153.2911 C.ar    1  UNL1        0.0585
     30 CL        141.7017  133.6687  151.9668 Cl      1  UNL1       -0.0822
     31 C         142.3099  133.4456  154.4829 C.ar    1  UNL1        0.0228
     32 C         142.6138  134.0811  155.8072 C.ar    1  UNL1        0.0585
     33 CL        142.9182  133.2226  156.9989 Cl      1  UNL1       -0.0822
@<TRIPOS>BOND
     1     1     2    1
     2     2     3   am
     3     3     4    2
     4     3     5    1
     5     5    20    1
     6    20    21   am
     7    21    22    2
     8    21    24    1
     9    24    25    2
    10    25    26    1
    11    26    27   ar
    12    27    28   ar
    13    28    29   ar
    14    29    30    1
    15    29    31   ar
    16    31    32   ar
    17    32    33    1
    18     5     6    1
    19     6     7    2
    20     7    14    1
    21    14    15   ar
    22    15    16   ar
    23    16    17   ar
    24    17    18   ar
    25    18    19   ar
    26     7     8    1
    27     8     9   ar
    28     9    10   ar
    29    10    11   ar
    30    11    12   ar
    31    12    13   ar
    32    13     2    1
    33    32    26   ar
    34    19    14   ar
    35    13     8   ar
    36    20    23    1
@<TRIPOS>MOLECULE
*****
 33 36 0 0 0
SMALL
GASTEIGER

@<TRIPOS>ATOM
      1 C         144.3471  138.3580  166.1634 C.3     1  UNL1        0.1201
      2 N         143.3778  139.3048  165.5199 N.am    1  UNL1       -0.2538
      3 C         143.5250  139.4788  164.0374 C.2     1  UNL1        0.2712
      4 O         144.6219  138.6832  163.3943 O.2     1  UNL1       -0.2705
      5 C         142.7201  140.3434  163.1128 C.3     1  UNL1        0.2553
      6 N         141.5694  141.2474  163.4424 N.2     1  UNL1       -0.2434
      7 C         140.9393  141.5101  164.7781 C.2     1  UNL1        0.0795
      8 C         141.3043  140.9337  166.1140 C.ar    1  UNL1        0.0310
      9 C         140.4165  141.4638  167.2006 C.ar    1  UNL1        0.0027
     10 C         140.6139  141.0124  168.6174 C.ar    1  UNL1        0.0001
     11 C         141.6992  140.0310  168.9475 C.ar    1  UNL1        0.0013
     12 C         142.5870  139.5009  167.8609 C.ar    1  UNL1        0.0149
     13 C         142.3895  139.9522  166.4442 C.ar    1  UNL1        0.0554
     14 C         139.7926  142.4771  164.7779 C.ar    1  UNL1        0.0174
     15 C         138.4236  142.0170  164.3726 C.ar    1  UNL1        0.0015
     16 C         137.2769  142.9839  164.3724 C.ar    1  UNL1        0.0000
     17 C         137.4992  144.4110  164.7774 C.ar    1  UNL1        0.0000
     18 C         138.8680  144.8711  165.1827 C.ar    1  UNL1        0.0000
     19 C         140.0148  143.9042  165.1830 C.ar    1  UNL1        0.0015
     20 N         143.1187  140.2980  161.6675 N.am    1  UNL1       -0.2762
     21 C         143.6291  141.5356  160.9909 C.2     1  UNL1        0.2476
     22 O         143.7410  142.8188  161.7598 O.2     1  UNL1       -0.2701
     23 H         143.0453  139.4558  161.1628 H       1  UNL1        0.1519
     24 C         144.0277  141.4901  159.5456 C.2     1  UNL1        0.0578
     25 C         145.0205  142.4789  159.0099 C.2     1  UNL1        0.0055
     26 C         145.4191  142.4334  157.5646 C.ar    1  UNL1        0.0108
     27 C         144.4254  142.0057  156.5256 C.ar    1  UNL1        0.0017
     28 C         144.8240  141.9602  155.0803 C.ar    1  UNL1        0.0114
     29 C         146.2163  142.3425  154.6739 C.ar    1  UNL1        0.0585
     30 CL        146.6149  142.2971  153.2285 Cl      1  UNL1       -0.0822
     31 C         147.2101  142.7703  155.7128 C.ar    1  UNL1        0.0228
     32 C         146.8115  142.8158  157.1582 C.ar    1  UNL1        0.0585
     33 CL        147.8053  143.2435  158.1972 Cl      1  UNL1       -0.0822
@<TRIPOS>BOND
     1     1     2    1
     2     2     3   am
     3     3     4    2
     4     3     5    1
     5     5    20    1
     6    20    21   am
     7    21    22    2
     8    21    24    1
     9    24    25    2
    10    25    26    1
    11    26    27   ar
    12    27    28   ar
    13    28    29   ar
    14    29    30    1
    15    29    31   ar
    16    31    32   ar
    17    32    33    1
    18     5     6    1
    19     6     7    2
    20     7    14    1
    21    14    15   ar
    22    15    16   ar
    23    16    17   ar
    24    17    18   ar
    25    18    19   ar
    26     7     8    1
    27     8     9   ar
    28     9    10   ar
    29    10    11   ar
    30    11    12   ar
    31    12    13   ar
    32    13     2    1
    33    32    26   ar
    34    19    14   ar
    35    13     8   ar
    36    20    23    1
@<TRIPOS>MOLECULE
*****
 33 36 0 0 0
SMALL
GASTEIGER

@<TRIPOS>ATOM
      1 C         140.5609  144.3597  159.4055 C.3     1  UNL1        0.1201
      2 N         141.0219  143.1285  160.1278 N.am    1  UNL1       -0.2538
      3 C         141.0188  141.8625  159.3234 C.2     1  UNL1        0.2712
      4 O         140.5552  141.9950  157.9030 O.2     1  UNL1       -0.2705
      5 C         141.4181  140.4815  159.7515 C.3     1  UNL1        0.2553
      6 N         141.9191  140.0253  161.0898 N.2     1  UNL1       -0.2434
      7 C         142.1445  140.8377  162.3305 C.2     1  UNL1        0.0795
      8 C         141.9246  142.3068  162.5394 C.ar    1  UNL1        0.0310
      9 C         142.2759  142.7201  163.9378 C.ar    1  UNL1        0.0027
     10 C         142.1275  144.1529  164.3560 C.ar    1  UNL1        0.0001
     11 C         141.6279  145.1724  163.3757 C.ar    1  UNL1        0.0013
     12 C         141.2767  144.7591  161.9773 C.ar    1  UNL1        0.0149
     13 C         141.4250  143.3263  161.5591 C.ar    1  UNL1        0.0554
     14 C         142.6576  140.0809  163.5196 C.ar    1  UNL1        0.0174
     15 C         141.6942  139.5003  164.5119 C.ar    1  UNL1        0.0015
     16 C         142.2073  138.7435  165.7011 C.ar    1  UNL1        0.0000
     17 C         143.6839  138.5674  165.8979 C.ar    1  UNL1        0.0000
     18 C         144.6473  139.1480  164.9056 C.ar    1  UNL1        0.0000
     19 C         144.1342  139.9048  163.7165 C.ar    1  UNL1        0.0015
     20 N         141.3010  139.4156  158.7027 N.am    1  UNL1       -0.2762
     21 C         142.5294  138.9119  158.0047 C.2     1  UNL1        0.2476
     22 O         143.8751  139.4741  158.3556 O.2     1  UNL1       -0.2701
     23 H         140.4178  139.0466  158.4724 H       1  UNL1        0.1519
     24 C         142.4122  137.8460  156.9559 C.2     1  UNL1        0.0578
     25 C         142.9501  136.4709  157.2206 C.2     1  UNL1        0.0055
     26 C         142.8329  135.4050  156.1717 C.ar    1  UNL1        0.0108
     27 C         142.2417  135.7323  154.8326 C.ar    1  UNL1        0.0017
     28 C         142.1246  134.6664  153.7837 C.ar    1  UNL1        0.0114
     29 C         142.5986  133.2732  154.0740 C.ar    1  UNL1        0.0585
     30 CL        142.4814  132.2073  153.0252 Cl      1  UNL1       -0.0822
     31 C         143.1898  132.9458  155.4132 C.ar    1  UNL1        0.0228
     32 C         143.3069  134.0117  156.4621 C.ar    1  UNL1        0.0585
     33 CL        143.8981  133.6845  157.8012 Cl      1  UNL1       -0.0822
@<TRIPOS>BOND
     1     1     2    1
     2     2     3   am
     3     3     4    2
     4     3     5    1
     5     5    20    1
     6    20    21   am
     7    21    22    2
     8    21    24    1
     9    24    25    2
    10    25    26    1
    11    26    27   ar
    12    27    28   ar
    13    28    29   ar
    14    29    30    1
    15    29    31   ar
    16    31    32   ar
    17    32    33    1
    18     5     6    1
    19     6     7    2
    20     7    14    1
    21    14    15   ar
    22    15    16   ar
    23    16    17   ar
    24    17    18   ar
    25    18    19   ar
    26     7     8    1
    27     8     9   ar
    28     9    10   ar
    29    10    11   ar
    30    11    12   ar
    31    12    13   ar
    32    13     2    1
    33    32    26   ar
    34    19    14   ar
    35    13     8   ar
    36    20    23    1
