@<TRIPOS>MOLECULE
*****
 32 36 0 0 0
SMALL
GASTEIGER

@<TRIPOS>ATOM
      1 O         140.8535  136.9104  162.8454 O.2     1  UNL1       -0.2668
      2 C         140.4768  138.3424  163.0849 C.2     1  UNL1        0.2806
      3 N         140.4357  139.3090  161.9386 N.am    1  UNL1       -0.2999
      4 H         140.1884  140.2488  162.0958 H       1  UNL1        0.1498
      5 C         140.1410  138.8079  164.4708 C.ar    1  UNL1        0.2014
      6 C         138.8509  138.3884  165.1110 C.ar    1  UNL1        0.0843
      7 C         138.5152  138.8539  166.4968 C.ar    1  UNL1        0.2019
      8 O         137.2251  138.4344  167.1369 O.2     1  UNL1       -0.2864
      9 C         139.4695  139.7388  167.2426 C.ar    1  UNL1        0.0758
     10 C         139.1338  140.2043  168.6284 C.ar    1  UNL1        0.0359
     11 C         140.0881  141.0892  169.3742 C.ar    1  UNL1        0.1404
     12 F         139.7524  141.5547  170.7601 F       1  UNL1       -0.2042
     13 C         141.3782  141.5086  168.7340 C.ar    1  UNL1        0.0328
     14 C         141.7140  141.0432  167.3482 C.ar    1  UNL1        0.0399
     15 C         140.7596  140.1583  166.6025 C.ar    1  UNL1        0.1487
     16 O         141.0954  139.6928  165.2166 O.2     1  UNL1       -0.4487
     17 C         140.7714  138.8435  160.5527 C.3     1  UNL1        0.0747
     18 C         139.6745  138.5760  159.5651 C.3     1  UNL1        0.0369
     19 C         140.0102  138.1106  158.1793 C.3     1  UNL1        0.0741
     20 N         141.4428  137.9127  157.7810 N.3     1  UNL1       -0.2688
     21 C         142.5397  138.1802  158.7686 C.3     1  UNL1        0.0741
     22 C         142.2039  138.6457  160.1545 C.3     1  UNL1        0.0369
     23 C         141.7785  137.4473  156.3951 C.3     1  UNL1        0.0992
     24 C         142.0399  135.9933  156.1349 C.ar    1  UNL1       -0.0029
     25 C         141.1339  135.2197  155.2236 C.ar    1  UNL1        0.0004
     26 C         141.3952  133.7658  154.9634 C.ar    1  UNL1        0.0399
     27 C         142.5626  133.0854  155.6146 C.ar    1  UNL1        0.1764
     28 C         143.4687  133.8589  156.5260 C.ar    1  UNL1        0.1762
     29 C         143.2073  135.3129  156.7861 C.ar    1  UNL1        0.0373
     30 O         144.5333  132.9260  157.0224 O.3     1  UNL1       -0.4346
     31 C         144.2852  131.5759  156.4178 C.3     1  UNL1        0.4294
     32 O         143.0672  131.6744  155.5477 O.3     1  UNL1       -0.4346
@<TRIPOS>BOND
     1     1     2    2
     2     2     3   am
     3     3    17    1
     4    17    18    1
     5    18    19    1
     6    19    20    1
     7    20    23    1
     8    23    24    1
     9    24    25   ar
    10    25    26   ar
    11    26    27   ar
    12    27    28   ar
    13    28    29   ar
    14    28    30    1
    15    30    31    1
    16    31    32    1
    17    20    21    1
    18    21    22    1
    19     2     5    1
    20     5     6   ar
    21     6     7   ar
    22     7     8    2
    23     7     9   ar
    24     9    10   ar
    25    10    11   ar
    26    11    12    1
    27    11    13   ar
    28    13    14   ar
    29    14    15   ar
    30    15    16   ar
    31    22    17    1
    32    16     5   ar
    33    29    24   ar
    34    15     9   ar
    35    32    27    1
    36     3     4    1
@<TRIPOS>MOLECULE
*****
 32 36 0 0 0
SMALL
GASTEIGER

@<TRIPOS>ATOM
      1 O         141.2485  138.1242  161.5157 O.2     1  UNL1       -0.2668
      2 C         140.9194  139.5349  161.1266 C.2     1  UNL1        0.2806
      3 N         140.8532  139.9173  159.6776 N.am    1  UNL1       -0.2999
      4 H         140.6372  140.8433  159.4222 H       1  UNL1        0.1498
      5 C         140.6563  140.5634  162.1864 C.ar    1  UNL1        0.2014
      6 C         141.6180  140.7293  163.3256 C.ar    1  UNL1        0.0843
      7 C         141.3550  141.7577  164.3854 C.ar    1  UNL1        0.2019
      8 O         142.3167  141.9236  165.5245 O.2     1  UNL1       -0.2864
      9 C         140.1304  142.6202  164.3061 C.ar    1  UNL1        0.0758
     10 C         139.8674  143.6486  165.3659 C.ar    1  UNL1        0.0359
     11 C         138.6428  144.5111  165.2865 C.ar    1  UNL1        0.1404
     12 F         138.3797  145.5395  166.3464 F       1  UNL1       -0.2042
     13 C         137.6811  144.3452  164.1474 C.ar    1  UNL1        0.0328
     14 C         137.9441  143.3168  163.0875 C.ar    1  UNL1        0.0399
     15 C         139.1687  142.4543  163.1669 C.ar    1  UNL1        0.1487
     16 O         139.4317  141.4259  162.1071 O.2     1  UNL1       -0.4487
     17 C         141.1162  138.8890  158.6178 C.3     1  UNL1        0.0747
     18 C         142.5233  138.4655  158.3164 C.3     1  UNL1        0.0369
     19 C         142.7863  137.4371  157.2566 C.3     1  UNL1        0.0741
     20 N         141.6422  136.8322  156.4981 N.3     1  UNL1       -0.2688
     21 C         140.2352  137.2556  156.7996 C.3     1  UNL1        0.0741
     22 C         139.9722  138.2841  157.8594 C.3     1  UNL1        0.0369
     23 C         141.9052  135.8038  155.4383 C.3     1  UNL1        0.0992
     24 C         142.2709  134.4021  155.8276 C.ar    1  UNL1       -0.0029
     25 C         141.4794  133.2449  155.2943 C.ar    1  UNL1        0.0004
     26 C         141.8450  131.8433  155.6837 C.ar    1  UNL1        0.0399
     27 C         143.0022  131.5988  156.6062 C.ar    1  UNL1        0.1764
     28 C         143.7936  132.7559  157.1395 C.ar    1  UNL1        0.1762
     29 C         143.4280  134.1576  156.7502 C.ar    1  UNL1        0.0373
     30 O         144.8745  132.2097  158.0247 O.3     1  UNL1       -0.4346
     31 C         144.7509  130.7148  158.0385 C.3     1  UNL1        0.4294
     32 O         143.5938  130.3373  157.1618 O.3     1  UNL1       -0.4346
@<TRIPOS>BOND
     1     1     2    2
     2     2     3   am
     3     3    17    1
     4    17    18    1
     5    18    19    1
     6    19    20    1
     7    20    23    1
     8    23    24    1
     9    24    25   ar
    10    25    26   ar
    11    26    27   ar
    12    27    28   ar
    13    28    29   ar
    14    28    30    1
    15    30    31    1
    16    31    32    1
    17    20    21    1
    18    21    22    1
    19     2     5    1
    20     5     6   ar
    21     6     7   ar
    22     7     8    2
    23     7     9   ar
    24     9    10   ar
    25    10    11   ar
    26    11    12    1
    27    11    13   ar
    28    13    14   ar
    29    14    15   ar
    30    15    16   ar
    31    22    17    1
    32    16     5   ar
    33    29    24   ar
    34    15     9   ar
    35    32    27    1
    36     3     4    1
@<TRIPOS>MOLECULE
*****
 32 36 0 0 0
SMALL
GASTEIGER

@<TRIPOS>ATOM
      1 O         143.9043  139.0838  159.8245 O.2     1  UNL1       -0.2668
      2 C         142.5213  138.5109  159.7300 C.2     1  UNL1        0.2806
      3 N         141.5872  138.6093  160.8995 N.am    1  UNL1       -0.2999
      4 H         140.6794  138.2333  160.8374 H       1  UNL1        0.1498
      5 C         142.0723  137.8395  158.4659 C.ar    1  UNL1        0.2014
      6 C         140.6972  138.0999  157.9261 C.ar    1  UNL1        0.0843
      7 C         140.2482  137.4286  156.6621 C.ar    1  UNL1        0.2019
      8 O         138.8731  137.6889  156.1223 O.2     1  UNL1       -0.2864
      9 C         141.1743  136.4969  155.9379 C.ar    1  UNL1        0.0758
     10 C         140.7252  135.8256  154.6739 C.ar    1  UNL1        0.0359
     11 C         141.6513  134.8940  153.9497 C.ar    1  UNL1        0.1404
     12 F         141.2023  134.2227  152.6856 F       1  UNL1       -0.2042
     13 C         143.0264  134.6337  154.4895 C.ar    1  UNL1        0.0328
     14 C         143.4754  135.3050  155.7535 C.ar    1  UNL1        0.0399
     15 C         142.5493  136.2366  156.4777 C.ar    1  UNL1        0.1487
     16 O         142.9983  136.9079  157.7417 O.2     1  UNL1       -0.4487
     17 C         142.0361  139.2806  162.1635 C.3     1  UNL1        0.0747
     18 C         142.8615  138.5245  163.1619 C.3     1  UNL1        0.0369
     19 C         143.3105  139.1958  164.4259 C.3     1  UNL1        0.0741
     20 N         142.9340  140.6233  164.6916 N.3     1  UNL1       -0.2688
     21 C         142.1085  141.3794  163.6931 C.3     1  UNL1        0.0741
     22 C         141.6596  140.7081  162.4291 C.3     1  UNL1        0.0369
     23 C         143.3829  141.2946  165.9556 C.3     1  UNL1        0.0992
     24 C         142.4600  141.3651  167.1360 C.ar    1  UNL1       -0.0029
     25 C         142.7257  142.3471  168.2382 C.ar    1  UNL1        0.0004
     26 C         141.8028  142.4176  169.4186 C.ar    1  UNL1        0.0399
     27 C         140.6141  141.5061  169.4967 C.ar    1  UNL1        0.1764
     28 C         140.3484  140.5241  168.3944 C.ar    1  UNL1        0.1762
     29 C         141.2713  140.4536  167.2141 C.ar    1  UNL1        0.0373
     30 O         139.1067  139.7588  168.7448 O.3     1  UNL1       -0.4346
     31 C         138.6052  140.2678  170.0636 C.3     1  UNL1        0.4294
     32 O         139.5368  141.3477  170.5283 O.3     1  UNL1       -0.4346
@<TRIPOS>BOND
     1     1     2    2
     2     2     3   am
     3     3    17    1
     4    17    18    1
     5    18    19    1
     6    19    20    1
     7    20    23    1
     8    23    24    1
     9    24    25   ar
    10    25    26   ar
    11    26    27   ar
    12    27    28   ar
    13    28    29   ar
    14    28    30    1
    15    30    31    1
    16    31    32    1
    17    20    21    1
    18    21    22    1
    19     2     5    1
    20     5     6   ar
    21     6     7   ar
    22     7     8    2
    23     7     9   ar
    24     9    10   ar
    25    10    11   ar
    26    11    12    1
    27    11    13   ar
    28    13    14   ar
    29    14    15   ar
    30    15    16   ar
    31    22    17    1
    32    16     5   ar
    33    29    24   ar
    34    15     9   ar
    35    32    27    1
    36     3     4    1
@<TRIPOS>MOLECULE
*****
 32 36 0 0 0
SMALL
GASTEIGER

@<TRIPOS>ATOM
      1 O         140.3890  145.6459  161.2696 O.2     1  UNL1       -0.2668
      2 C         141.2927  144.4496  161.3162 C.2     1  UNL1        0.2806
      3 N         141.7242  143.7855  160.0422 N.am    1  UNL1       -0.2999
      4 H         142.3173  143.0003  160.0728 H       1  UNL1        0.1498
      5 C         141.7648  143.9172  162.6367 C.ar    1  UNL1        0.2014
      6 C         143.2054  143.5427  162.8226 C.ar    1  UNL1        0.0843
      7 C         143.6775  143.0104  164.1430 C.ar    1  UNL1        0.2019
      8 O         145.1181  142.6359  164.3289 O.2     1  UNL1       -0.2864
      9 C         142.7091  142.8525  165.2777 C.ar    1  UNL1        0.0758
     10 C         143.1813  142.3202  166.5981 C.ar    1  UNL1        0.0359
     11 C         142.2129  142.1624  167.7327 C.ar    1  UNL1        0.1404
     12 F         142.6851  141.6300  169.0532 F       1  UNL1       -0.2042
     13 C         140.7724  142.5369  167.5468 C.ar    1  UNL1        0.0328
     14 C         140.3002  143.0692  166.2264 C.ar    1  UNL1        0.0399
     15 C         141.2686  143.2270  165.0918 C.ar    1  UNL1        0.1487
     16 O         140.7964  143.7594  163.7713 O.2     1  UNL1       -0.4487
     17 C         141.2521  144.3178  158.7218 C.3     1  UNL1        0.0747
     18 C         139.9792  143.8033  158.1175 C.3     1  UNL1        0.0369
     19 C         139.5071  144.3356  156.7970 C.3     1  UNL1        0.0741
     20 N         140.3079  145.3824  156.0807 N.3     1  UNL1       -0.2688
     21 C         141.5808  145.8969  156.6850 C.3     1  UNL1        0.0741
     22 C         142.0529  145.3646  158.0055 C.3     1  UNL1        0.0369
     23 C         139.8358  145.9147  154.7602 C.3     1  UNL1        0.0992
     24 C         139.7852  147.3950  154.5230 C.ar    1  UNL1       -0.0029
     25 C         140.5496  147.9983  153.3821 C.ar    1  UNL1        0.0004
     26 C         140.4990  149.4785  153.1449 C.ar    1  UNL1        0.0399
     27 C         139.6841  150.3555  154.0486 C.ar    1  UNL1        0.1764
     28 C         138.9198  149.7522  155.1896 C.ar    1  UNL1        0.1762
     29 C         138.9703  148.2720  155.4267 C.ar    1  UNL1        0.0373
     30 O         138.2083  150.8602  155.9082 O.3     1  UNL1       -0.4346
     31 C         138.5330  152.1482  155.2114 C.3     1  UNL1        0.4294
     32 O         139.4451  151.8363  154.0621 O.3     1  UNL1       -0.4346
@<TRIPOS>BOND
     1     1     2    2
     2     2     3   am
     3     3    17    1
     4    17    18    1
     5    18    19    1
     6    19    20    1
     7    20    23    1
     8    23    24    1
     9    24    25   ar
    10    25    26   ar
    11    26    27   ar
    12    27    28   ar
    13    28    29   ar
    14    28    30    1
    15    30    31    1
    16    31    32    1
    17    20    21    1
    18    21    22    1
    19     2     5    1
    20     5     6   ar
    21     6     7   ar
    22     7     8    2
    23     7     9   ar
    24     9    10   ar
    25    10    11   ar
    26    11    12    1
    27    11    13   ar
    28    13    14   ar
    29    14    15   ar
    30    15    16   ar
    31    22    17    1
    32    16     5   ar
    33    29    24   ar
    34    15     9   ar
    35    32    27    1
    36     3     4    1
@<TRIPOS>MOLECULE
*****
 32 36 0 0 0
SMALL
GASTEIGER

@<TRIPOS>ATOM
      1 O         140.5077  137.2412  162.5874 O.2     1  UNL1       -0.2668
      2 C         140.2531  138.6726  162.9562 C.2     1  UNL1        0.2806
      3 N         140.2900  139.7373  161.9002 N.am    1  UNL1       -0.2999
      4 H         140.1229  140.6768  162.1424 H       1  UNL1        0.1498
      5 C         139.9617  139.0395  164.3812 C.ar    1  UNL1        0.2014
      6 C         138.7331  138.5064  165.0567 C.ar    1  UNL1        0.0843
      7 C         138.4416  138.8732  166.4816 C.ar    1  UNL1        0.2019
      8 O         137.2130  138.3400  167.1571 O.2     1  UNL1       -0.2864
      9 C         139.3788  139.7732  167.2312 C.ar    1  UNL1        0.0758
     10 C         139.0873  140.1400  168.6561 C.ar    1  UNL1        0.0359
     11 C         140.0245  141.0400  169.4055 C.ar    1  UNL1        0.1404
     12 F         139.7331  141.4069  170.8305 F       1  UNL1       -0.2042
     13 C         141.2531  141.5732  168.7301 C.ar    1  UNL1        0.0328
     14 C         141.5446  141.2063  167.3052 C.ar    1  UNL1        0.0399
     15 C         140.6074  140.3064  166.5557 C.ar    1  UNL1        0.1487
     16 O         140.8989  139.9395  165.1307 O.2     1  UNL1       -0.4487
     17 C         140.5814  139.3705  160.4753 C.3     1  UNL1        0.0747
     18 C         141.9569  139.5771  159.9139 C.3     1  UNL1        0.0369
     19 C         142.2484  139.2103  158.4890 C.3     1  UNL1        0.0741
     20 N         141.1642  138.6368  157.6253 N.3     1  UNL1       -0.2688
     21 C         139.7886  138.4302  158.1867 C.3     1  UNL1        0.0741
     22 C         139.4972  138.7970  159.6117 C.3     1  UNL1        0.0369
     23 C         141.4556  138.2700  156.2004 C.3     1  UNL1        0.0992
     24 C         142.0179  136.9183  155.8739 C.ar    1  UNL1       -0.0029
     25 C         143.4997  136.7380  155.7266 C.ar    1  UNL1        0.0004
     26 C         144.0621  135.3863  155.4001 C.ar    1  UNL1        0.0399
     27 C         143.1427  134.2149  155.2208 C.ar    1  UNL1        0.1764
     28 C         141.6608  134.3951  155.3680 C.ar    1  UNL1        0.1762
     29 C         141.0985  135.7468  155.6946 C.ar    1  UNL1        0.0373
     30 O         141.0068  133.0653  155.1358 O.3     1  UNL1       -0.4346
     31 C         142.0844  132.0632  154.8450 C.3     1  UNL1        0.4294
     32 O         143.4044  132.7737  154.8975 O.3     1  UNL1       -0.4346
@<TRIPOS>BOND
     1     1     2    2
     2     2     3   am
     3     3    17    1
     4    17    18    1
     5    18    19    1
     6    19    20    1
     7    20    23    1
     8    23    24    1
     9    24    25   ar
    10    25    26   ar
    11    26    27   ar
    12    27    28   ar
    13    28    29   ar
    14    28    30    1
    15    30    31    1
    16    31    32    1
    17    20    21    1
    18    21    22    1
    19     2     5    1
    20     5     6   ar
    21     6     7   ar
    22     7     8    2
    23     7     9   ar
    24     9    10   ar
    25    10    11   ar
    26    11    12    1
    27    11    13   ar
    28    13    14   ar
    29    14    15   ar
    30    15    16   ar
    31    22    17    1
    32    16     5   ar
    33    29    24   ar
    34    15     9   ar
    35    32    27    1
    36     3     4    1
@<TRIPOS>MOLECULE
*****
 32 36 0 0 0
SMALL
GASTEIGER

@<TRIPOS>ATOM
      1 O         139.6272  141.1467  160.2464 O.2     1  UNL1       -0.2668
      2 C         138.2945  140.6358  159.7851 C.2     1  UNL1        0.2806
      3 N         137.3729  139.9604  160.7570 N.am    1  UNL1       -0.2999
      4 H         136.4982  139.6250  160.4542 H       1  UNL1        0.1498
      5 C         137.8833  140.8003  158.3520 C.ar    1  UNL1        0.2014
      6 C         138.9000  141.1892  157.3200 C.ar    1  UNL1        0.0843
      7 C         138.4889  141.3538  155.8868 C.ar    1  UNL1        0.2019
      8 O         139.5056  141.7427  154.8548 O.2     1  UNL1       -0.2864
      9 C         137.0610  141.1293  155.4857 C.ar    1  UNL1        0.0758
     10 C         136.6499  141.2938  154.0525 C.ar    1  UNL1        0.0359
     11 C         135.2221  141.0693  153.6514 C.ar    1  UNL1        0.1404
     12 F         134.8109  141.2338  152.2182 F       1  UNL1       -0.2042
     13 C         134.2054  140.6804  154.6834 C.ar    1  UNL1        0.0328
     14 C         134.6165  140.5158  156.1165 C.ar    1  UNL1        0.0399
     15 C         136.0443  140.7403  156.5177 C.ar    1  UNL1        0.1487
     16 O         136.4555  140.5758  157.9508 O.2     1  UNL1       -0.4487
     17 C         137.7840  139.7958  162.1901 C.3     1  UNL1        0.0747
     18 C         138.3882  138.5035  162.6534 C.3     1  UNL1        0.0369
     19 C         138.7994  138.3390  164.0865 C.3     1  UNL1        0.0741
     20 N         138.6062  139.4668  165.0564 N.3     1  UNL1       -0.2688
     21 C         138.0020  140.7592  164.5931 C.3     1  UNL1        0.0741
     22 C         137.5909  140.9237  163.1599 C.3     1  UNL1        0.0369
     23 C         139.0173  139.3023  166.4895 C.3     1  UNL1        0.0992
     24 C         140.1332  140.1335  167.0499 C.ar    1  UNL1       -0.0029
     25 C         141.3873  140.3402  166.2534 C.ar    1  UNL1        0.0004
     26 C         142.5032  141.1714  166.8137 C.ar    1  UNL1        0.0399
     27 C         142.3650  141.7959  168.1705 C.ar    1  UNL1        0.1764
     28 C         141.1109  141.5891  168.9669 C.ar    1  UNL1        0.1762
     29 C         139.9950  140.7580  168.4066 C.ar    1  UNL1        0.0373
     30 O         141.2601  142.3245  170.2658 O.3     1  UNL1       -0.4346
     31 C         142.6065  142.9857  170.2720 C.3     1  UNL1        0.4294
     32 O         143.2893  142.6590  168.9770 O.3     1  UNL1       -0.4346
@<TRIPOS>BOND
     1     1     2    2
     2     2     3   am
     3     3    17    1
     4    17    18    1
     5    18    19    1
     6    19    20    1
     7    20    23    1
     8    23    24    1
     9    24    25   ar
    10    25    26   ar
    11    26    27   ar
    12    27    28   ar
    13    28    29   ar
    14    28    30    1
    15    30    31    1
    16    31    32    1
    17    20    21    1
    18    21    22    1
    19     2     5    1
    20     5     6   ar
    21     6     7   ar
    22     7     8    2
    23     7     9   ar
    24     9    10   ar
    25    10    11   ar
    26    11    12    1
    27    11    13   ar
    28    13    14   ar
    29    14    15   ar
    30    15    16   ar
    31    22    17    1
    32    16     5   ar
    33    29    24   ar
    34    15     9   ar
    35    32    27    1
    36     3     4    1
@<TRIPOS>MOLECULE
*****
 32 36 0 0 0
SMALL
GASTEIGER

@<TRIPOS>ATOM
      1 O         141.2747  144.0828  160.7201 O.2     1  UNL1       -0.2668
      2 C         140.2033  143.9716  159.6764 C.2     1  UNL1        0.2806
      3 N         138.9911  143.1261  159.9329 N.am    1  UNL1       -0.2999
      4 H         138.2879  143.0531  159.2478 H       1  UNL1        0.1498
      5 C         140.3439  144.7059  158.3759 C.ar    1  UNL1        0.2014
      6 C         141.2978  144.2061  157.3317 C.ar    1  UNL1        0.0843
      7 C         141.4384  144.9404  156.0314 C.ar    1  UNL1        0.2019
      8 O         142.3923  144.4406  154.9872 O.2     1  UNL1       -0.2864
      9 C         140.6251  146.1745  155.7751 C.ar    1  UNL1        0.0758
     10 C         140.7657  146.9087  154.4747 C.ar    1  UNL1        0.0359
     11 C         139.9525  148.1428  154.2185 C.ar    1  UNL1        0.1404
     12 F         140.0931  148.8771  152.9180 F       1  UNL1       -0.2042
     13 C         138.9986  148.6426  155.2626 C.ar    1  UNL1        0.0328
     14 C         138.8579  147.9083  156.5630 C.ar    1  UNL1        0.0399
     15 C         139.6712  146.6743  156.8192 C.ar    1  UNL1        0.1487
     16 O         139.5306  145.9399  158.1197 O.2     1  UNL1       -0.4487
     17 C         138.8505  142.3918  161.2333 C.3     1  UNL1        0.0747
     18 C         139.7063  141.1922  161.5136 C.3     1  UNL1        0.0369
     19 C         139.5657  140.4579  162.8140 C.3     1  UNL1        0.0741
     20 N         138.5692  140.9231  163.8341 N.3     1  UNL1       -0.2688
     21 C         137.7133  142.1227  163.5538 C.3     1  UNL1        0.0741
     22 C         137.8540  142.8570  162.2533 C.3     1  UNL1        0.0369
     23 C         138.4285  140.1888  165.1344 C.3     1  UNL1        0.0992
     24 C         139.1996  140.6417  166.3387 C.ar    1  UNL1       -0.0029
     25 C         139.9976  141.9107  166.2848 C.ar    1  UNL1        0.0004
     26 C         140.7687  142.3636  167.4891 C.ar    1  UNL1        0.0399
     27 C         140.7419  141.5474  168.7473 C.ar    1  UNL1        0.1764
     28 C         139.9440  140.2784  168.8012 C.ar    1  UNL1        0.1762
     29 C         139.1729  139.8256  167.5969 C.ar    1  UNL1        0.0373
     30 O         140.1061  139.6867  170.1701 O.3     1  UNL1       -0.4346
     31 C         141.0042  140.5901  170.9621 C.3     1  UNL1        0.4294
     32 O         141.3971  141.7401  170.0828 O.3     1  UNL1       -0.4346
@<TRIPOS>BOND
     1     1     2    2
     2     2     3   am
     3     3    17    1
     4    17    18    1
     5    18    19    1
     6    19    20    1
     7    20    23    1
     8    23    24    1
     9    24    25   ar
    10    25    26   ar
    11    26    27   ar
    12    27    28   ar
    13    28    29   ar
    14    28    30    1
    15    30    31    1
    16    31    32    1
    17    20    21    1
    18    21    22    1
    19     2     5    1
    20     5     6   ar
    21     6     7   ar
    22     7     8    2
    23     7     9   ar
    24     9    10   ar
    25    10    11   ar
    26    11    12    1
    27    11    13   ar
    28    13    14   ar
    29    14    15   ar
    30    15    16   ar
    31    22    17    1
    32    16     5   ar
    33    29    24   ar
    34    15     9   ar
    35    32    27    1
    36     3     4    1
@<TRIPOS>MOLECULE
*****
 32 36 0 0 0
SMALL
GASTEIGER

@<TRIPOS>ATOM
      1 O         142.1239  137.2261  161.5733 O.2     1  UNL1       -0.2668
      2 C         141.3067  138.4586  161.8243 C.2     1  UNL1        0.2806
      3 N         140.7531  139.2394  160.6694 N.am    1  UNL1       -0.2999
      4 H         140.2167  140.0484  160.8341 H       1  UNL1        0.1498
      5 C         141.0430  138.9102  163.2302 C.ar    1  UNL1        0.2014
      6 C         142.0395  139.7798  163.9379 C.ar    1  UNL1        0.0843
      7 C         141.7758  140.2315  165.3438 C.ar    1  UNL1        0.2019
      8 O         142.7723  141.1010  166.0515 O.2     1  UNL1       -0.2864
      9 C         140.5157  139.8136  166.0420 C.ar    1  UNL1        0.0758
     10 C         140.2520  140.2653  167.4478 C.ar    1  UNL1        0.0359
     11 C         138.9919  139.8474  168.1459 C.ar    1  UNL1        0.1404
     12 F         138.7282  140.2991  169.5518 F       1  UNL1       -0.2042
     13 C         137.9954  138.9779  167.4382 C.ar    1  UNL1        0.0328
     14 C         138.2590  138.5262  166.0324 C.ar    1  UNL1        0.0399
     15 C         139.5192  138.9441  165.3342 C.ar    1  UNL1        0.1487
     16 O         139.7829  138.4924  163.9283 O.2     1  UNL1       -0.4487
     17 C         141.0167  138.7878  159.2635 C.3     1  UNL1        0.0747
     18 C         142.4081  138.8445  158.7060 C.3     1  UNL1        0.0369
     19 C         142.6718  138.3929  157.3002 C.3     1  UNL1        0.0741
     20 N         141.5440  137.8845  156.4518 N.3     1  UNL1       -0.2688
     21 C         140.1526  137.8278  157.0093 C.3     1  UNL1        0.0741
     22 C         139.8890  138.2795  158.4152 C.3     1  UNL1        0.0369
     23 C         141.8077  137.4329  155.0459 C.3     1  UNL1        0.0992
     24 C         141.8644  135.9684  154.7268 C.ar    1  UNL1       -0.0029
     25 C         141.8245  135.5097  153.2992 C.ar    1  UNL1        0.0004
     26 C         141.8812  134.0452  152.9801 C.ar    1  UNL1        0.0399
     27 C         141.9778  133.0392  154.0886 C.ar    1  UNL1        0.1764
     28 C         142.0176  133.4979  155.5161 C.ar    1  UNL1        0.1762
     29 C         141.9609  134.9624  155.8352 C.ar    1  UNL1        0.0373
     30 O         142.1141  132.2830  156.3908 O.3     1  UNL1       -0.4346
     31 C         142.1339  131.0736  155.5037 C.3     1  UNL1        0.4294
     32 O         142.0496  131.5410  154.0809 O.3     1  UNL1       -0.4346
@<TRIPOS>BOND
     1     1     2    2
     2     2     3   am
     3     3    17    1
     4    17    18    1
     5    18    19    1
     6    19    20    1
     7    20    23    1
     8    23    24    1
     9    24    25   ar
    10    25    26   ar
    11    26    27   ar
    12    27    28   ar
    13    28    29   ar
    14    28    30    1
    15    30    31    1
    16    31    32    1
    17    20    21    1
    18    21    22    1
    19     2     5    1
    20     5     6   ar
    21     6     7   ar
    22     7     8    2
    23     7     9   ar
    24     9    10   ar
    25    10    11   ar
    26    11    12    1
    27    11    13   ar
    28    13    14   ar
    29    14    15   ar
    30    15    16   ar
    31    22    17    1
    32    16     5   ar
    33    29    24   ar
    34    15     9   ar
    35    32    27    1
    36     3     4    1
@<TRIPOS>MOLECULE
*****
 32 36 0 0 0
SMALL
GASTEIGER

@<TRIPOS>ATOM
      1 O         139.7742  144.9910  162.1536 O.2     1  UNL1       -0.2668
      2 C         140.6330  143.7617  162.1883 C.2     1  UNL1        0.2806
      3 N         141.2023  143.2082  160.9157 N.am    1  UNL1       -0.2999
      4 H         141.7659  142.4014  160.9385 H       1  UNL1        0.1498
      5 C         140.9226  143.0858  163.4958 C.ar    1  UNL1        0.2014
      6 C         142.2331  143.3198  164.1870 C.ar    1  UNL1        0.0843
      7 C         142.5226  142.6440  165.4944 C.ar    1  UNL1        0.2019
      8 O         143.8331  142.8781  166.1856 O.2     1  UNL1       -0.2864
      9 C         141.5017  141.7340  166.1106 C.ar    1  UNL1        0.0758
     10 C         141.7913  141.0581  167.4180 C.ar    1  UNL1        0.0359
     11 C         140.7704  140.1482  168.0342 C.ar    1  UNL1        0.1404
     12 F         141.0599  139.4722  169.3416 F       1  UNL1       -0.2042
     13 C         139.4599  139.9141  167.3429 C.ar    1  UNL1        0.0328
     14 C         139.1703  140.5899  166.0356 C.ar    1  UNL1        0.0399
     15 C         140.1912  141.4999  165.4194 C.ar    1  UNL1        0.1487
     16 O         139.9016  142.1758  164.1119 O.2     1  UNL1       -0.4487
     17 C         140.9127  143.8841  159.6083 C.3     1  UNL1        0.0747
     18 C         141.7747  145.0207  159.1445 C.3     1  UNL1        0.0369
     19 C         141.4852  145.6965  157.8371 C.3     1  UNL1        0.0741
     20 N         140.3337  145.2358  156.9934 N.3     1  UNL1       -0.2688
     21 C         139.4717  144.0992  157.4572 C.3     1  UNL1        0.0741
     22 C         139.7612  143.4233  158.7647 C.3     1  UNL1        0.0369
     23 C         140.0441  145.9116  155.6860 C.3     1  UNL1        0.0992
     24 C         139.5920  147.3417  155.6649 C.ar    1  UNL1       -0.0029
     25 C         138.8426  147.9087  156.8340 C.ar    1  UNL1        0.0004
     26 C         138.3905  149.3388  156.8129 C.ar    1  UNL1        0.0399
     27 C         138.6878  150.2019  155.6227 C.ar    1  UNL1        0.1764
     28 C         139.4373  149.6349  154.4536 C.ar    1  UNL1        0.1762
     29 C         139.8894  148.2048  154.4747 C.ar    1  UNL1        0.0373
     30 O         139.5839  150.7189  153.4271 O.3     1  UNL1       -0.4346
     31 C         138.9251  151.9558  153.9619 C.3     1  UNL1        0.4294
     32 O         138.3713  151.6363  155.3188 O.3     1  UNL1       -0.4346
@<TRIPOS>BOND
     1     1     2    2
     2     2     3   am
     3     3    17    1
     4    17    18    1
     5    18    19    1
     6    19    20    1
     7    20    23    1
     8    23    24    1
     9    24    25   ar
    10    25    26   ar
    11    26    27   ar
    12    27    28   ar
    13    28    29   ar
    14    28    30    1
    15    30    31    1
    16    31    32    1
    17    20    21    1
    18    21    22    1
    19     2     5    1
    20     5     6   ar
    21     6     7   ar
    22     7     8    2
    23     7     9   ar
    24     9    10   ar
    25    10    11   ar
    26    11    12    1
    27    11    13   ar
    28    13    14   ar
    29    14    15   ar
    30    15    16   ar
    31    22    17    1
    32    16     5   ar
    33    29    24   ar
    34    15     9   ar
    35    32    27    1
    36     3     4    1
