@<TRIPOS>MOLECULE
*****
 39 43 0 0 0
SMALL
GASTEIGER

@<TRIPOS>ATOM
      1 C         143.6042  137.5562  156.0564 C.ar    1  UNL1        0.0830
      2 C         144.5565  138.0979  155.0319 C.ar    1  UNL1        0.0193
      3 C         145.1668  139.4553  155.2190 C.ar    1  UNL1        0.0074
      4 C         144.8247  140.2709  156.4305 C.ar    1  UNL1        0.0676
      5 C         145.4351  141.6284  156.6176 C.ar    1  UNL1        0.1376
      6 N         145.0930  142.4440  157.8291 N.ar    1  UNL1       -0.1986
      7 C         144.1406  141.9021  158.8536 C.ar    1  UNL1        0.2227
      8 N         143.5303  140.5448  158.6665 N.ar    1  UNL1       -0.1944
      9 C         143.8724  139.7292  157.4550 C.ar    1  UNL1        0.1678
     10 N         143.2621  138.3718  157.2679 N.ar    1  UNL1       -0.2264
     11 N         146.3874  142.1701  155.5932 N.pl3   1  UNL1       -0.2897
     12 C         147.8465  141.8312  155.6722 C.3     1  UNL1        0.1242
     13 C         148.7988  142.3730  154.6477 C.3     1  UNL1        0.1636
     14 O         148.2921  143.2537  153.5443 O.3     1  UNL1       -0.3502
     15 C         146.8331  143.5927  153.4653 C.3     1  UNL1        0.1618
     16 C         145.8807  143.0509  154.4897 C.3     1  UNL1        0.1038
     17 C         144.4216  143.3899  154.4108 C.3     1  UNL1        0.0241
     18 N         143.7985  142.7177  160.0651 N.pl3   1  UNL1       -0.2747
     19 C         144.7363  142.7521  161.2353 C.3     1  UNL1        0.1256
     20 C         144.3943  143.5678  162.4468 C.3     1  UNL1        0.1637
     21 O         143.1143  144.3490  162.4881 O.3     1  UNL1       -0.3502
     22 C         142.1766  144.3145  161.3179 C.3     1  UNL1        0.1619
     23 C         142.5187  143.4989  160.1064 C.3     1  UNL1        0.1052
     24 C         141.5809  143.4645  158.9362 C.3     1  UNL1        0.0242
     25 C         143.1256  133.6171  156.1301 C.ar    1  UNL1        0.0875
     26 C         143.7359  134.9746  156.3172 C.ar    1  UNL1        0.0091
     27 C         142.9938  136.1987  155.8693 C.ar    1  UNL1        0.0180
     28 C         141.6414  136.0655  155.2343 C.ar    1  UNL1        0.0046
     29 C         141.0311  134.7082  155.0472 C.ar    1  UNL1        0.0373
     30 C         141.7732  133.4839  155.4951 C.ar    1  UNL1        0.1486
     31 C         143.9494  130.1867  157.9476 C.3     1  UNL1        0.1109
     32 N         143.2073  131.4109  157.4997 N.am    1  UNL1       -0.2991
     33 C         143.8677  132.3929  156.5780 C.2     1  UNL1        0.2488
     34 O         145.2701  132.1508  156.1043 O.2     1  UNL1       -0.2700
     35 H         142.2868  131.5698  157.8106 H       1  UNL1        0.1498
     36 O         141.1628  132.1266  155.3081 O.3     1  UNL1       -0.4235
     37 C         141.2193  131.4572  153.9669 C.3     1  UNL1        0.5087
     38 F         140.0998  130.5602  153.5286 F       1  UNL1       -0.1550
     39 F         142.3952  131.6849  153.0639 F       1  UNL1       -0.1550
@<TRIPOS>BOND
     1    31    32    1
     2    32    33   am
     3    33    34    2
     4    33    25    1
     5    25    26   ar
     6    26    27   ar
     7    27     1    1
     8     1     2   ar
     9     2     3   ar
    10     3     4   ar
    11     4     5   ar
    12     5    11    1
    13    11    12    1
    14    12    13    1
    15    13    14    1
    16    14    15    1
    17    15    16    1
    18    16    17    1
    19     5     6   ar
    20     6     7   ar
    21     7    18    1
    22    18    19    1
    23    19    20    1
    24    20    21    1
    25    21    22    1
    26    22    23    1
    27    23    24    1
    28     7     8   ar
    29     8     9   ar
    30     9    10   ar
    31    27    28   ar
    32    28    29   ar
    33    29    30   ar
    34    30    36    1
    35    36    37    1
    36    37    38    1
    37    37    39    1
    38    30    25   ar
    39    10     1   ar
    40     9     4   ar
    41    16    11    1
    42    23    18    1
    43    32    35    1
@<TRIPOS>MOLECULE
*****
 39 43 0 0 0
SMALL
GASTEIGER

@<TRIPOS>ATOM
      1 C         142.9413  137.2009  157.0942 C.ar    1  UNL1        0.0830
      2 C         142.5607  137.6701  158.4671 C.ar    1  UNL1        0.0193
      3 C         142.8253  139.0892  158.8748 C.ar    1  UNL1        0.0074
      4 C         143.4705  140.0390  157.9096 C.ar    1  UNL1        0.0676
      5 C         143.7351  141.4581  158.3174 C.ar    1  UNL1        0.1376
      6 N         144.3803  142.4079  157.3522 N.ar    1  UNL1       -0.1986
      7 C         144.7609  141.9385  155.9792 C.ar    1  UNL1        0.2227
      8 N         144.4963  140.5195  155.5715 N.ar    1  UNL1       -0.1944
      9 C         143.8511  139.5697  156.5367 C.ar    1  UNL1        0.1678
     10 N         143.5865  138.1507  156.1290 N.ar    1  UNL1       -0.2264
     11 N         143.3545  141.9273  159.6903 N.pl3   1  UNL1       -0.2897
     12 C         144.3380  141.8231  160.8180 C.3     1  UNL1        0.1242
     13 C         143.9574  142.2924  162.1909 C.3     1  UNL1        0.1636
     14 O         142.5932  142.8658  162.4361 O.3     1  UNL1       -0.3502
     15 C         141.6096  142.9700  161.3084 C.3     1  UNL1        0.1618
     16 C         141.9902  142.5008  159.9355 C.3     1  UNL1        0.1038
     17 C         141.0067  142.6050  158.8078 C.3     1  UNL1        0.0241
     18 N         145.4061  142.8883  155.0140 N.pl3   1  UNL1       -0.2747
     19 C         144.5560  143.7455  154.1237 C.3     1  UNL1        0.1256
     20 C         145.2012  144.6953  153.1585 C.3     1  UNL1        0.1637
     21 O         146.6966  144.7879  153.0837 O.3     1  UNL1       -0.3502
     22 C         147.5466  143.9308  153.9740 C.3     1  UNL1        0.1619
     23 C         146.9014  142.9810  154.9392 C.3     1  UNL1        0.1052
     24 C         147.7514  142.1239  155.8295 C.3     1  UNL1        0.0242
     25 C         143.2087  133.2466  156.8866 C.ar    1  UNL1        0.0875
     26 C         143.4733  134.6658  157.2944 C.ar    1  UNL1        0.0091
     27 C         142.6767  135.7818  156.6864 C.ar    1  UNL1        0.0180
     28 C         141.6154  135.4788  155.6705 C.ar    1  UNL1        0.0046
     29 C         141.3508  134.0598  155.2627 C.ar    1  UNL1        0.0373
     30 C         142.1474  132.9437  155.8708 C.ar    1  UNL1        0.1486
     31 C         144.1620  129.6787  158.3395 C.3     1  UNL1        0.1109
     32 N         143.3654  130.7948  157.7314 N.am    1  UNL1       -0.2991
     33 C         144.0053  132.1306  157.4947 C.2     1  UNL1        0.2488
     34 O         145.4419  132.3504  157.8660 O.2     1  UNL1       -0.2700
     35 H         142.4225  130.6505  157.4877 H       1  UNL1        0.1498
     36 O         141.8828  131.5247  155.4630 O.3     1  UNL1       -0.4235
     37 C         140.7379  131.2086  154.5469 C.3     1  UNL1        0.5087
     38 F         139.4902  130.5815  155.0946 F       1  UNL1       -0.1550
     39 F         140.8406  131.5198  153.0832 F       1  UNL1       -0.1550
@<TRIPOS>BOND
     1    31    32    1
     2    32    33   am
     3    33    34    2
     4    33    25    1
     5    25    26   ar
     6    26    27   ar
     7    27     1    1
     8     1     2   ar
     9     2     3   ar
    10     3     4   ar
    11     4     5   ar
    12     5    11    1
    13    11    12    1
    14    12    13    1
    15    13    14    1
    16    14    15    1
    17    15    16    1
    18    16    17    1
    19     5     6   ar
    20     6     7   ar
    21     7    18    1
    22    18    19    1
    23    19    20    1
    24    20    21    1
    25    21    22    1
    26    22    23    1
    27    23    24    1
    28     7     8   ar
    29     8     9   ar
    30     9    10   ar
    31    27    28   ar
    32    28    29   ar
    33    29    30   ar
    34    30    36    1
    35    36    37    1
    36    37    38    1
    37    37    39    1
    38    30    25   ar
    39    10     1   ar
    40     9     4   ar
    41    16    11    1
    42    23    18    1
    43    32    35    1
@<TRIPOS>MOLECULE
*****
 39 43 0 0 0
SMALL
GASTEIGER

@<TRIPOS>ATOM
      1 C         143.2630  137.5519  156.4230 C.ar    1  UNL1        0.0830
      2 C         142.5714  138.3482  157.4895 C.ar    1  UNL1        0.0193
      3 C         143.0521  139.7290  157.8250 C.ar    1  UNL1        0.0074
      4 C         144.2243  140.3133  157.0939 C.ar    1  UNL1        0.0676
      5 C         144.7049  141.6941  157.4294 C.ar    1  UNL1        0.1376
      6 N         145.8771  142.2785  156.6984 N.ar    1  UNL1       -0.1986
      7 C         146.5687  141.4821  155.6318 C.ar    1  UNL1        0.2227
      8 N         146.0881  140.1014  155.2964 N.ar    1  UNL1       -0.1944
      9 C         144.9159  139.5170  156.0274 C.ar    1  UNL1        0.1678
     10 N         144.4353  138.1363  155.6920 N.ar    1  UNL1       -0.2264
     11 N         144.0133  142.4905  158.4959 N.pl3   1  UNL1       -0.2897
     12 C         144.4476  142.3649  159.9262 C.3     1  UNL1        0.1242
     13 C         143.7559  143.1613  160.9927 C.3     1  UNL1        0.1636
     14 O         142.6300  144.0832  160.6290 O.3     1  UNL1       -0.3502
     15 C         142.1957  144.2088  159.1987 C.3     1  UNL1        0.1618
     16 C         142.8873  143.4125  158.1322 C.3     1  UNL1        0.1038
     17 C         142.4530  143.5381  156.7020 C.3     1  UNL1        0.0241
     18 N         147.7409  142.0665  154.9008 N.pl3   1  UNL1       -0.2747
     19 C         149.1302  141.5937  155.2116 C.3     1  UNL1        0.1256
     20 C         150.3024  142.1780  154.4806 C.3     1  UNL1        0.1637
     21 O         150.0853  143.2352  153.4387 O.3     1  UNL1       -0.3502
     22 C         148.6961  143.7080  153.1280 C.3     1  UNL1        0.1619
     23 C         147.5239  143.1236  153.8590 C.3     1  UNL1        0.1052
     24 C         146.1347  143.5963  153.5483 C.3     1  UNL1        0.0242
     25 C         143.0916  133.5936  156.1925 C.ar    1  UNL1        0.0875
     26 C         143.5722  134.9744  156.5280 C.ar    1  UNL1        0.0091
     27 C         142.7824  136.1711  156.0875 C.ar    1  UNL1        0.0180
     28 C         141.5120  135.9871  155.3115 C.ar    1  UNL1        0.0046
     29 C         141.0314  134.6064  154.9760 C.ar    1  UNL1        0.0373
     30 C         141.8212  133.4096  155.4165 C.ar    1  UNL1        0.1486
     31 C         144.0399  130.1711  157.9635 C.3     1  UNL1        0.1109
     32 N         143.2501  131.3678  157.5231 N.am    1  UNL1       -0.2991
     33 C         143.8814  132.3969  156.6329 C.2     1  UNL1        0.2488
     34 O         145.3026  132.2293  156.1833 O.2     1  UNL1       -0.2700
     35 H         142.3173  131.4778  157.8182 H       1  UNL1        0.1498
     36 O         141.3406  132.0289  155.0809 O.3     1  UNL1       -0.4235
     37 C         141.7862  131.3678  153.8104 C.3     1  UNL1        0.5087
     38 F         143.2249  131.4392  153.3923 F       1  UNL1       -0.1550
     39 F         140.7930  130.6351  152.9579 F       1  UNL1       -0.1550
@<TRIPOS>BOND
     1    31    32    1
     2    32    33   am
     3    33    34    2
     4    33    25    1
     5    25    26   ar
     6    26    27   ar
     7    27     1    1
     8     1     2   ar
     9     2     3   ar
    10     3     4   ar
    11     4     5   ar
    12     5    11    1
    13    11    12    1
    14    12    13    1
    15    13    14    1
    16    14    15    1
    17    15    16    1
    18    16    17    1
    19     5     6   ar
    20     6     7   ar
    21     7    18    1
    22    18    19    1
    23    19    20    1
    24    20    21    1
    25    21    22    1
    26    22    23    1
    27    23    24    1
    28     7     8   ar
    29     8     9   ar
    30     9    10   ar
    31    27    28   ar
    32    28    29   ar
    33    29    30   ar
    34    30    36    1
    35    36    37    1
    36    37    38    1
    37    37    39    1
    38    30    25   ar
    39    10     1   ar
    40     9     4   ar
    41    16    11    1
    42    23    18    1
    43    32    35    1
@<TRIPOS>MOLECULE
*****
 39 43 0 0 0
SMALL
GASTEIGER

@<TRIPOS>ATOM
      1 C         142.0178  141.1846  160.1763 C.ar    1  UNL1        0.0830
      2 C         142.7775  142.0620  159.2261 C.ar    1  UNL1        0.0193
      3 C         143.3648  141.4800  157.9746 C.ar    1  UNL1        0.0074
      4 C         143.1924  140.0208  157.6733 C.ar    1  UNL1        0.0676
      5 C         143.7798  139.4388  156.4217 C.ar    1  UNL1        0.1376
      6 N         143.6073  137.9796  156.1204 N.ar    1  UNL1       -0.1986
      7 C         142.8475  137.1022  157.0707 C.ar    1  UNL1        0.2227
      8 N         142.2602  137.6841  158.3222 N.ar    1  UNL1       -0.1944
      9 C         142.4327  139.1434  158.6235 C.ar    1  UNL1        0.1678
     10 N         141.8454  139.7254  159.8751 N.ar    1  UNL1       -0.2264
     11 N         144.5395  140.3162  155.4714 N.pl3   1  UNL1       -0.2897
     12 C         146.0103  140.5367  155.6670 C.3     1  UNL1        0.1242
     13 C         146.7700  141.4141  154.7167 C.3     1  UNL1        0.1636
     14 O         146.0590  142.0709  153.5709 O.3     1  UNL1       -0.3502
     15 C         144.5883  141.8504  153.3752 C.3     1  UNL1        0.1618
     16 C         143.8285  140.9730  154.3255 C.3     1  UNL1        0.1038
     17 C         142.3578  140.7525  154.1299 C.3     1  UNL1        0.0241
     18 N         142.6751  135.6429  156.7694 N.pl3   1  UNL1       -0.2747
     19 C         143.5008  134.6241  157.4976 C.3     1  UNL1        0.1256
     20 C         143.3284  133.1648  157.1963 C.3     1  UNL1        0.1637
     21 O         142.3302  132.7244  156.1669 O.3     1  UNL1       -0.3502
     22 C         141.5046  133.7432  155.4387 C.3     1  UNL1        0.1619
     23 C         141.6770  135.2025  155.7400 C.3     1  UNL1        0.1052
     24 C         140.8514  136.2213  155.0119 C.3     1  UNL1        0.0242
     25 C         140.1170  141.4637  163.6490 C.ar    1  UNL1        0.0875
     26 C         140.7043  140.8818  162.3974 C.ar    1  UNL1        0.0091
     27 C         141.4304  141.7666  161.4280 C.ar    1  UNL1        0.0180
     28 C         141.5693  143.2332  161.7100 C.ar    1  UNL1        0.0046
     29 C         140.9819  143.8152  162.9615 C.ar    1  UNL1        0.0373
     30 C         140.2558  142.9304  163.9311 C.ar    1  UNL1        0.1486
     31 C         139.1005  139.6365  167.0221 C.3     1  UNL1        0.1109
     32 N         139.8266  140.5213  166.0526 N.am    1  UNL1       -0.2991
     33 C         139.3908  140.5790  164.6185 C.2     1  UNL1        0.2488
     34 O         138.2289  139.7519  164.1538 O.2     1  UNL1       -0.2700
     35 H         140.5892  141.0641  166.3576 H       1  UNL1        0.1498
     36 O         139.6685  143.5123  165.1826 O.3     1  UNL1       -0.4235
     37 C         138.5167  144.4694  165.0960 C.3     1  UNL1        0.5087
     38 F         137.5364  144.3629  163.9657 F       1  UNL1       -0.1550
     39 F         138.3452  145.5329  166.1398 F       1  UNL1       -0.1550
@<TRIPOS>BOND
     1    31    32    1
     2    32    33   am
     3    33    34    2
     4    33    25    1
     5    25    26   ar
     6    26    27   ar
     7    27     1    1
     8     1     2   ar
     9     2     3   ar
    10     3     4   ar
    11     4     5   ar
    12     5    11    1
    13    11    12    1
    14    12    13    1
    15    13    14    1
    16    14    15    1
    17    15    16    1
    18    16    17    1
    19     5     6   ar
    20     6     7   ar
    21     7    18    1
    22    18    19    1
    23    19    20    1
    24    20    21    1
    25    21    22    1
    26    22    23    1
    27    23    24    1
    28     7     8   ar
    29     8     9   ar
    30     9    10   ar
    31    27    28   ar
    32    28    29   ar
    33    29    30   ar
    34    30    36    1
    35    36    37    1
    36    37    38    1
    37    37    39    1
    38    30    25   ar
    39    10     1   ar
    40     9     4   ar
    41    16    11    1
    42    23    18    1
    43    32    35    1
@<TRIPOS>MOLECULE
*****
 39 43 0 0 0
SMALL
GASTEIGER

@<TRIPOS>ATOM
      1 C         142.3612  136.8059  157.0287 C.ar    1  UNL1        0.0830
      2 C         141.3929  137.7058  156.3199 C.ar    1  UNL1        0.0193
      3 C         141.0451  139.0424  156.9051 C.ar    1  UNL1        0.0074
      4 C         141.6656  139.4791  158.1990 C.ar    1  UNL1        0.0676
      5 C         141.3178  140.8158  158.7842 C.ar    1  UNL1        0.1376
      6 N         141.9383  141.2525  160.0781 N.ar    1  UNL1       -0.1986
      7 C         142.9068  140.3525  160.7868 C.ar    1  UNL1        0.2227
      8 N         143.2546  139.0159  160.2017 N.ar    1  UNL1       -0.1944
      9 C         142.6340  138.5792  158.9077 C.ar    1  UNL1        0.1678
     10 N         142.9818  137.2426  158.3226 N.ar    1  UNL1       -0.2264
     11 N         140.3494  141.7157  158.0755 N.pl3   1  UNL1       -0.2897
     12 C         140.8513  142.7324  157.0934 C.3     1  UNL1        0.1242
     13 C         139.8828  143.6324  156.3846 C.3     1  UNL1        0.1636
     14 O         138.4126  143.5156  156.6580 O.3     1  UNL1       -0.3502
     15 C         137.9107  142.4989  157.6401 C.3     1  UNL1        0.1618
     16 C         138.8791  141.5990  158.3488 C.3     1  UNL1        0.1038
     17 C         138.3772  140.5823  159.3309 C.3     1  UNL1        0.0241
     18 N         143.5273  140.7891  162.0807 N.pl3   1  UNL1       -0.2747
     19 C         144.8610  141.4757  162.0788 C.3     1  UNL1        0.1256
     20 C         145.4816  141.9124  163.3728 C.3     1  UNL1        0.1637
     21 O         144.7685  141.6625  164.6686 O.3     1  UNL1       -0.3502
     22 C         143.4348  140.9759  164.6704 C.3     1  UNL1        0.1619
     23 C         142.8143  140.5393  163.3765 C.3     1  UNL1        0.1052
     24 C         141.4807  139.8527  163.3784 C.3     1  UNL1        0.0242
     25 C         143.7488  133.1022  156.7006 C.ar    1  UNL1        0.0875
     26 C         143.4010  134.4389  157.2858 C.ar    1  UNL1        0.0091
     27 C         142.7091  135.4692  156.4435 C.ar    1  UNL1        0.0180
     28 C         142.3649  135.1630  155.0160 C.ar    1  UNL1        0.0046
     29 C         142.7128  133.8264  154.4308 C.ar    1  UNL1        0.0373
     30 C         143.4047  132.7959  155.2731 C.ar    1  UNL1        0.1486
     31 C         144.5248  129.6809  158.5560 C.3     1  UNL1        0.1109
     32 N         143.8328  130.7112  157.7136 N.am    1  UNL1       -0.2991
     33 C         144.4408  132.0718  157.5430 C.2     1  UNL1        0.2488
     34 O         145.7406  132.4021  158.2147 O.2     1  UNL1       -0.2700
     35 H         142.9797  130.4945  157.2728 H       1  UNL1        0.1498
     36 O         143.7525  131.4593  154.6880 O.3     1  UNL1       -0.4235
     37 C         143.1884  131.0527  153.3589 C.3     1  UNL1        0.5087
     38 F         141.7095  130.8591  153.1994 F       1  UNL1       -0.1550
     39 F         144.1031  130.8397  152.1893 F       1  UNL1       -0.1550
@<TRIPOS>BOND
     1    31    32    1
     2    32    33   am
     3    33    34    2
     4    33    25    1
     5    25    26   ar
     6    26    27   ar
     7    27     1    1
     8     1     2   ar
     9     2     3   ar
    10     3     4   ar
    11     4     5   ar
    12     5    11    1
    13    11    12    1
    14    12    13    1
    15    13    14    1
    16    14    15    1
    17    15    16    1
    18    16    17    1
    19     5     6   ar
    20     6     7   ar
    21     7    18    1
    22    18    19    1
    23    19    20    1
    24    20    21    1
    25    21    22    1
    26    22    23    1
    27    23    24    1
    28     7     8   ar
    29     8     9   ar
    30     9    10   ar
    31    27    28   ar
    32    28    29   ar
    33    29    30   ar
    34    30    36    1
    35    36    37    1
    36    37    38    1
    37    37    39    1
    38    30    25   ar
    39    10     1   ar
    40     9     4   ar
    41    16    11    1
    42    23    18    1
    43    32    35    1
@<TRIPOS>MOLECULE
*****
 39 43 0 0 0
SMALL
GASTEIGER

@<TRIPOS>ATOM
      1 C         142.7003  140.5899  161.2272 C.ar    1  UNL1        0.0830
      2 C         143.3311  141.6727  160.4028 C.ar    1  UNL1        0.0193
      3 C         143.7152  141.4031  158.9781 C.ar    1  UNL1        0.0074
      4 C         143.4685  140.0508  158.3778 C.ar    1  UNL1        0.0676
      5 C         143.8526  139.7813  156.9531 C.ar    1  UNL1        0.1376
      6 N         143.6059  138.4289  156.3528 N.ar    1  UNL1       -0.1986
      7 C         142.9752  137.3461  157.1772 C.ar    1  UNL1        0.2227
      8 N         142.5911  137.6157  158.6019 N.ar    1  UNL1       -0.1944
      9 C         142.8377  138.9680  159.2022 C.ar    1  UNL1        0.1678
     10 N         142.4536  139.2375  160.6269 N.ar    1  UNL1       -0.2264
     11 N         144.4834  140.8641  156.1287 N.pl3   1  UNL1       -0.2897
     12 C         145.9760  141.0093  156.0969 C.3     1  UNL1        0.1242
     13 C         146.6067  142.0922  155.2724 C.3     1  UNL1        0.1636
     14 O         145.7449  143.0297  154.4798 O.3     1  UNL1       -0.3502
     15 C         144.2523  142.8844  154.5116 C.3     1  UNL1        0.1618
     16 C         143.6215  141.8017  155.3360 C.3     1  UNL1        0.1038
     17 C         142.1289  141.6564  155.3678 C.3     1  UNL1        0.0241
     18 N         142.7285  135.9938  156.5769 N.pl3   1  UNL1       -0.2747
     19 C         143.6968  134.8753  156.8247 C.3     1  UNL1        0.1256
     20 C         143.4502  133.5229  156.2244 C.3     1  UNL1        0.1637
     21 O         142.2352  133.2891  155.3763 O.3     1  UNL1       -0.3502
     22 C         141.2669  134.4076  155.1286 C.3     1  UNL1        0.1619
     23 C         141.5136  135.7599  155.7289 C.3     1  UNL1        0.1052
     24 C         140.5453  136.8784  155.4811 C.3     1  UNL1        0.0242
     25 C         140.6322  140.6082  164.6144 C.ar    1  UNL1        0.0875
     26 C         141.0163  140.3386  163.1896 C.ar    1  UNL1        0.0091
     27 C         142.3162  140.8594  162.6520 C.ar    1  UNL1        0.0180
     28 C         143.2320  141.6496  163.5390 C.ar    1  UNL1        0.0046
     29 C         142.8479  141.9191  164.9637 C.ar    1  UNL1        0.0373
     30 C         141.5480  141.3984  165.5014 C.ar    1  UNL1        0.1486
     31 C         138.0135  138.7573  166.9525 C.3     1  UNL1        0.1109
     32 N         139.3134  139.2780  166.4148 N.am    1  UNL1       -0.2991
     33 C         139.3323  140.0874  165.1521 C.2     1  UNL1        0.2488
     34 O         138.0514  140.3761  164.4270 O.2     1  UNL1       -0.2700
     35 H         140.1542  139.0886  166.8907 H       1  UNL1        0.1498
     36 O         141.1639  141.6679  166.9261 O.3     1  UNL1       -0.4235
     37 C         140.3521  142.8822  167.2672 C.3     1  UNL1        0.5087
     38 F         139.6319  143.6311  166.1853 F       1  UNL1       -0.1550
     39 F         140.2603  143.3477  168.6902 F       1  UNL1       -0.1550
@<TRIPOS>BOND
     1    31    32    1
     2    32    33   am
     3    33    34    2
     4    33    25    1
     5    25    26   ar
     6    26    27   ar
     7    27     1    1
     8     1     2   ar
     9     2     3   ar
    10     3     4   ar
    11     4     5   ar
    12     5    11    1
    13    11    12    1
    14    12    13    1
    15    13    14    1
    16    14    15    1
    17    15    16    1
    18    16    17    1
    19     5     6   ar
    20     6     7   ar
    21     7    18    1
    22    18    19    1
    23    19    20    1
    24    20    21    1
    25    21    22    1
    26    22    23    1
    27    23    24    1
    28     7     8   ar
    29     8     9   ar
    30     9    10   ar
    31    27    28   ar
    32    28    29   ar
    33    29    30   ar
    34    30    36    1
    35    36    37    1
    36    37    38    1
    37    37    39    1
    38    30    25   ar
    39    10     1   ar
    40     9     4   ar
    41    16    11    1
    42    23    18    1
    43    32    35    1
@<TRIPOS>MOLECULE
*****
 39 43 0 0 0
SMALL
GASTEIGER

@<TRIPOS>ATOM
      1 C         142.9403  140.6282  160.9623 C.ar    1  UNL1        0.0830
      2 C         143.5249  141.6353  160.0168 C.ar    1  UNL1        0.0193
      3 C         143.8183  141.2494  158.5974 C.ar    1  UNL1        0.0074
      4 C         143.5272  139.8564  158.1234 C.ar    1  UNL1        0.0676
      5 C         143.8207  139.4704  156.7038 C.ar    1  UNL1        0.1376
      6 N         143.5296  138.0774  156.2299 N.ar    1  UNL1       -0.1986
      7 C         142.9449  137.0703  157.1754 C.ar    1  UNL1        0.2227
      8 N         142.6514  137.4562  158.5948 N.ar    1  UNL1       -0.1944
      9 C         142.9426  138.8493  159.0688 C.ar    1  UNL1        0.1678
     10 N         142.6491  139.2352  160.4883 N.ar    1  UNL1       -0.2264
     11 N         144.4053  140.4775  155.7584 N.pl3   1  UNL1       -0.2897
     12 C         145.8939  140.6205  155.6413 C.3     1  UNL1        0.1242
     13 C         146.4785  141.6277  154.6957 C.3     1  UNL1        0.1636
     14 O         145.5746  142.4918  153.8674 O.3     1  UNL1       -0.3502
     15 C         144.0860  142.3488  153.9846 C.3     1  UNL1        0.1618
     16 C         143.5014  141.3417  154.9300 C.3     1  UNL1        0.1038
     17 C         142.0128  141.1987  155.0471 C.3     1  UNL1        0.0241
     18 N         142.6538  135.6772  156.7014 N.pl3   1  UNL1       -0.2747
     19 C         143.4544  134.5231  157.2279 C.3     1  UNL1        0.1256
     20 C         143.1633  133.1301  156.7539 C.3     1  UNL1        0.1637
     21 O         142.0715  132.8911  155.7534 O.3     1  UNL1       -0.3502
     22 C         141.2709  134.0452  155.2270 C.3     1  UNL1        0.1619
     23 C         141.5621  135.4382  155.7009 C.3     1  UNL1        0.1052
     24 C         140.7615  136.5922  155.1745 C.3     1  UNL1        0.0242
     25 C         141.5222  142.6146  164.0919 C.ar    1  UNL1        0.0875
     26 C         141.8157  142.2286  162.6723 C.ar    1  UNL1        0.0091
     27 C         142.6467  141.0142  162.3818 C.ar    1  UNL1        0.0180
     28 C         143.1843  140.1856  163.5107 C.ar    1  UNL1        0.0046
     29 C         142.8908  140.5714  164.9302 C.ar    1  UNL1        0.0373
     30 C         142.0598  141.7860  165.2208 C.ar    1  UNL1        0.1486
     31 C         138.6183  144.9209  165.5053 C.3     1  UNL1        0.1109
     32 N         139.4493  143.7065  165.2147 N.am    1  UNL1       -0.2991
     33 C         140.6912  143.8290  164.3824 C.2     1  UNL1        0.2488
     34 O         141.1021  145.1660  163.8406 O.2     1  UNL1       -0.2700
     35 H         139.1797  142.8289  165.5703 H       1  UNL1        0.1498
     36 O         141.7663  142.1718  166.6403 O.3     1  UNL1       -0.4235
     37 C         142.8705  142.1931  167.6553 C.3     1  UNL1        0.5087
     38 F         144.1268  142.9652  167.3808 F       1  UNL1       -0.1550
     39 F         142.7183  141.4423  168.9449 F       1  UNL1       -0.1550
@<TRIPOS>BOND
     1    31    32    1
     2    32    33   am
     3    33    34    2
     4    33    25    1
     5    25    26   ar
     6    26    27   ar
     7    27     1    1
     8     1     2   ar
     9     2     3   ar
    10     3     4   ar
    11     4     5   ar
    12     5    11    1
    13    11    12    1
    14    12    13    1
    15    13    14    1
    16    14    15    1
    17    15    16    1
    18    16    17    1
    19     5     6   ar
    20     6     7   ar
    21     7    18    1
    22    18    19    1
    23    19    20    1
    24    20    21    1
    25    21    22    1
    26    22    23    1
    27    23    24    1
    28     7     8   ar
    29     8     9   ar
    30     9    10   ar
    31    27    28   ar
    32    28    29   ar
    33    29    30   ar
    34    30    36    1
    35    36    37    1
    36    37    38    1
    37    37    39    1
    38    30    25   ar
    39    10     1   ar
    40     9     4   ar
    41    16    11    1
    42    23    18    1
    43    32    35    1
@<TRIPOS>MOLECULE
*****
 39 43 0 0 0
SMALL
GASTEIGER

@<TRIPOS>ATOM
      1 C         141.0553  138.9986  159.0871 C.ar    1  UNL1        0.0830
      2 C         140.4206  140.3500  158.9426 C.ar    1  UNL1        0.0193
      3 C         140.2920  141.2496  160.1360 C.ar    1  UNL1        0.0074
      4 C         140.7980  140.7977  161.4738 C.ar    1  UNL1        0.0676
      5 C         140.6693  141.6974  162.6673 C.ar    1  UNL1        0.1376
      6 N         141.1752  141.2455  164.0051 N.ar    1  UNL1       -0.1986
      7 C         141.8099  139.8940  164.1495 C.ar    1  UNL1        0.2227
      8 N         141.9386  138.9945  162.9561 N.ar    1  UNL1       -0.1944
      9 C         141.4326  139.4463  161.6183 C.ar    1  UNL1        0.1678
     10 N         141.5612  138.5468  160.4249 N.ar    1  UNL1       -0.2264
     11 N         140.0346  143.0488  162.5228 N.pl3   1  UNL1       -0.2897
     12 C         140.8505  144.2133  162.0452 C.3     1  UNL1        0.1242
     13 C         140.2158  145.5648  161.9007 C.3     1  UNL1        0.1636
     14 O         138.7653  145.7516  162.2339 O.3     1  UNL1       -0.3502
     15 C         137.9494  144.5870  162.7115 C.3     1  UNL1        0.1618
     16 C         138.5840  143.2357  162.8560 C.3     1  UNL1        0.1038
     17 C         137.7682  142.0711  163.3336 C.3     1  UNL1        0.0241
     18 N         142.3159  139.4422  165.4874 N.pl3   1  UNL1       -0.2747
     19 C         143.4200  138.4300  165.5689 C.3     1  UNL1        0.1256
     20 C         143.9259  137.9782  166.9067 C.3     1  UNL1        0.1637
     21 O         143.3278  138.5385  168.1631 O.3     1  UNL1       -0.3502
     22 C         142.2238  139.5506  168.0815 C.3     1  UNL1        0.1619
     23 C         141.7178  140.0024  166.7437 C.3     1  UNL1        0.1052
     24 C         140.6138  141.0145  166.6622 C.3     1  UNL1        0.0242
     25 C         140.2014  137.1224  155.6957 C.ar    1  UNL1        0.0875
     26 C         140.0727  138.0220  156.8891 C.ar    1  UNL1        0.0091
     27 C         141.1840  138.0990  157.8936 C.ar    1  UNL1        0.0180
     28 C         142.4240  137.2764  157.7048 C.ar    1  UNL1        0.0046
     29 C         142.5527  136.3768  156.5115 C.ar    1  UNL1        0.0373
     30 C         141.4414  136.2998  155.5069 C.ar    1  UNL1        0.1486
     31 C         138.2922  136.7412  152.2375 C.3     1  UNL1        0.1109
     32 N         139.4034  136.8182  153.2420 N.am    1  UNL1       -0.2991
     33 C         139.0901  137.0454  154.6912 C.2     1  UNL1        0.2488
     34 O         137.6655  137.1956  155.1359 O.2     1  UNL1       -0.2700
     35 H         140.3385  136.7196  152.9502 H       1  UNL1        0.1498
     36 O         141.5701  135.4002  154.3135 O.3     1  UNL1       -0.4235
     37 C         141.4774  133.9126  154.4822 C.3     1  UNL1        0.5087
     38 F         141.5498  133.0157  153.2821 F       1  UNL1       -0.1550
     39 F         141.3124  133.3218  155.8511 F       1  UNL1       -0.1550
@<TRIPOS>BOND
     1    31    32    1
     2    32    33   am
     3    33    34    2
     4    33    25    1
     5    25    26   ar
     6    26    27   ar
     7    27     1    1
     8     1     2   ar
     9     2     3   ar
    10     3     4   ar
    11     4     5   ar
    12     5    11    1
    13    11    12    1
    14    12    13    1
    15    13    14    1
    16    14    15    1
    17    15    16    1
    18    16    17    1
    19     5     6   ar
    20     6     7   ar
    21     7    18    1
    22    18    19    1
    23    19    20    1
    24    20    21    1
    25    21    22    1
    26    22    23    1
    27    23    24    1
    28     7     8   ar
    29     8     9   ar
    30     9    10   ar
    31    27    28   ar
    32    28    29   ar
    33    29    30   ar
    34    30    36    1
    35    36    37    1
    36    37    38    1
    37    37    39    1
    38    30    25   ar
    39    10     1   ar
    40     9     4   ar
    41    16    11    1
    42    23    18    1
    43    32    35    1
@<TRIPOS>MOLECULE
*****
 39 43 0 0 0
SMALL
GASTEIGER

@<TRIPOS>ATOM
      1 C         140.5680  143.9031  159.6500 C.ar    1  UNL1        0.0830
      2 C         139.9084  142.7631  158.9321 C.ar    1  UNL1        0.0193
      3 C         139.2529  142.9929  157.6027 C.ar    1  UNL1        0.0074
      4 C         139.2569  144.3626  156.9912 C.ar    1  UNL1        0.0676
      5 C         138.6013  144.5923  155.6617 C.ar    1  UNL1        0.1376
      6 N         138.6054  145.9619  155.0501 N.ar    1  UNL1       -0.1986
      7 C         139.2650  147.1019  155.7681 C.ar    1  UNL1        0.2227
      8 N         139.9205  146.8722  157.0976 N.ar    1  UNL1       -0.1944
      9 C         139.9165  145.5025  157.7091 C.ar    1  UNL1        0.1678
     10 N         140.5720  145.2728  159.0385 N.ar    1  UNL1       -0.2264
     11 N         137.9418  143.4523  154.9437 N.pl3   1  UNL1       -0.2897
     12 C         136.4988  143.1363  155.2042 C.3     1  UNL1        0.1242
     13 C         135.8392  141.9962  154.4862 C.3     1  UNL1        0.1636
     14 O         136.6227  141.1723  153.5078 O.3     1  UNL1       -0.3502
     15 C         138.0657  141.4884  153.2474 C.3     1  UNL1        0.1618
     16 C         138.7252  142.6283  153.9653 C.3     1  UNL1        0.1038
     17 C         140.1683  142.9443  153.7048 C.3     1  UNL1        0.0241
     18 N         139.2690  148.4716  155.1566 N.pl3   1  UNL1       -0.2747
     19 C         138.5446  149.5973  155.8335 C.3     1  UNL1        0.1256
     20 C         138.5486  150.9670  155.2220 C.3     1  UNL1        0.1637
     21 O         139.2770  151.2110  153.9336 O.3     1  UNL1       -0.3502
     22 C         140.0014  150.0853  153.2568 C.3     1  UNL1        0.1619
     23 C         139.9973  148.7156  153.8683 C.3     1  UNL1        0.1052
     24 C         140.7217  147.5900  153.1915 C.3     1  UNL1        0.0242
     25 C         142.4529  142.0978  162.6398 C.ar    1  UNL1        0.0875
     26 C         141.7973  142.3275  161.3103 C.ar    1  UNL1        0.0091
     27 C         141.2236  143.6734  160.9796 C.ar    1  UNL1        0.0180
     28 C         141.3054  144.7896  161.9782 C.ar    1  UNL1        0.0046
     29 C         141.9609  144.5600  163.3077 C.ar    1  UNL1        0.0373
     30 C         142.5347  143.2141  163.6385 C.ar    1  UNL1        0.1486
     31 C         143.2776  138.7552  164.6137 C.3     1  UNL1        0.1109
     32 N         142.7038  140.1010  164.2829 N.am    1  UNL1       -0.2991
     33 C         143.0266  140.7520  162.9706 C.2     1  UNL1        0.2488
     34 O         143.9231  140.0571  161.9891 O.2     1  UNL1       -0.2700
     35 H         142.1154  140.5571  164.9271 H       1  UNL1        0.1498
     36 O         143.1902  142.9844  164.9680 O.3     1  UNL1       -0.4235
     37 C         144.6669  143.1976  165.1229 C.3     1  UNL1        0.5087
     38 F         145.1776  144.2834  166.0229 F       1  UNL1       -0.1550
     39 F         145.6329  142.3249  164.3778 F       1  UNL1       -0.1550
@<TRIPOS>BOND
     1    31    32    1
     2    32    33   am
     3    33    34    2
     4    33    25    1
     5    25    26   ar
     6    26    27   ar
     7    27     1    1
     8     1     2   ar
     9     2     3   ar
    10     3     4   ar
    11     4     5   ar
    12     5    11    1
    13    11    12    1
    14    12    13    1
    15    13    14    1
    16    14    15    1
    17    15    16    1
    18    16    17    1
    19     5     6   ar
    20     6     7   ar
    21     7    18    1
    22    18    19    1
    23    19    20    1
    24    20    21    1
    25    21    22    1
    26    22    23    1
    27    23    24    1
    28     7     8   ar
    29     8     9   ar
    30     9    10   ar
    31    27    28   ar
    32    28    29   ar
    33    29    30   ar
    34    30    36    1
    35    36    37    1
    36    37    38    1
    37    37    39    1
    38    30    25   ar
    39    10     1   ar
    40     9     4   ar
    41    16    11    1
    42    23    18    1
    43    32    35    1
