@<TRIPOS>MOLECULE
*****
 26 29 0 0 0
SMALL
GASTEIGER

@<TRIPOS>ATOM
      1 C         144.1472  137.8703  166.5855 C.3     1  UNL1        0.0310
      2 C         143.8374  138.9461  165.5872 C.ar    1  UNL1       -0.0217
      3 C         144.6840  139.0952  164.3580 C.ar    1  UNL1       -0.0030
      4 C         144.3742  140.1710  163.3598 C.ar    1  UNL1        0.0143
      5 C         143.2176  141.0978  163.5907 C.ar    1  UNL1        0.0497
      6 C         142.3709  140.9488  164.8198 C.ar    1  UNL1        0.0304
      7 C         142.6808  139.8729  165.8181 C.ar    1  UNL1       -0.0015
      8 C         141.1811  141.7599  165.2398 C.2     1  UNL1        0.0783
      9 N         140.5440  142.9203  164.5344 N.2     1  UNL1       -0.2444
     10 C         140.9395  143.5562  163.2348 C.ar    1  UNL1        0.0954
     11 C         140.0320  144.6981  162.8848 C.ar    1  UNL1        0.0317
     12 C         140.2546  145.4726  161.6197 C.ar    1  UNL1        0.0593
     13 CL        139.3471  146.6144  161.2697 Cl      1  UNL1       -0.0822
     14 C         141.3848  145.1052  160.7045 C.ar    1  UNL1        0.0128
     15 C         142.2924  143.9633  161.0544 C.ar    1  UNL1        0.0170
     16 C         142.0697  143.1888  162.3195 C.ar    1  UNL1        0.0662
     17 N         143.0836  142.0947  162.4779 N.pl3   1  UNL1       -0.3113
     18 H         143.7491  142.0212  161.7561 H       1  UNL1        0.1523
     19 C         140.5440  141.3573  166.5368 C.2     1  UNL1       -0.0061
     20 C         140.7669  142.1822  167.7696 C.2     1  UNL1       -0.0132
     21 C         140.1298  141.7797  169.0666 C.3     1  UNL1        0.0796
     22 C         140.3527  142.6045  170.2995 C.3     1  UNL1        0.0222
     23 N         139.2698  140.5523  169.1308 N.3     1  UNL1       -0.2688
     24 C         138.6327  140.1498  170.4277 C.3     1  UNL1        0.0899
     25 C         139.0469  139.7275  167.8979 C.3     1  UNL1        0.0771
     26 C         139.6840  140.1300  166.6009 C.3     1  UNL1        0.0449
@<TRIPOS>BOND
     1     1     2    1
     2     2     3   ar
     3     3     4   ar
     4     4     5   ar
     5     5     6   ar
     6     6     7   ar
     7     6     8    1
     8     8    19    1
     9    19    20    2
    10    20    21    1
    11    21    22    1
    12    21    23    1
    13    23    24    1
    14    23    25    1
    15    25    26    1
    16     8     9    2
    17     9    10    1
    18    10    11   ar
    19    11    12   ar
    20    12    13    1
    21    12    14   ar
    22    14    15   ar
    23    15    16   ar
    24    16    17    1
    25     7     2   ar
    26    26    19    1
    27    16    10   ar
    28    17     5    1
    29    17    18    1
@<TRIPOS>MOLECULE
*****
 26 29 0 0 0
SMALL
GASTEIGER

@<TRIPOS>ATOM
      1 C         138.1044  139.1742  161.6758 C.3     1  UNL1        0.0310
      2 C         138.7986  139.2925  163.0002 C.ar    1  UNL1       -0.0217
      3 C         138.5768  138.2531  164.0587 C.ar    1  UNL1       -0.0030
      4 C         139.2710  138.3714  165.3832 C.ar    1  UNL1        0.0143
      5 C         140.1870  139.5290  165.6491 C.ar    1  UNL1        0.0497
      6 C         140.4089  140.5683  164.5906 C.ar    1  UNL1        0.0304
      7 C         139.7147  140.4501  163.2662 C.ar    1  UNL1       -0.0015
      8 C         141.2740  141.7923  164.6485 C.2     1  UNL1        0.0783
      9 N         142.1311  142.2792  165.7792 N.2     1  UNL1       -0.2444
     10 C         142.3345  141.6624  167.1312 C.ar    1  UNL1        0.0954
     11 C         143.2782  142.4746  167.9678 C.ar    1  UNL1        0.0317
     12 C         143.6186  142.0308  169.3595 C.ar    1  UNL1        0.0593
     13 CL        144.5622  142.8430  170.1961 Cl      1  UNL1       -0.0822
     14 C         143.0153  140.7748  169.9148 C.ar    1  UNL1        0.0128
     15 C         142.0717  139.9625  169.0784 C.ar    1  UNL1        0.0170
     16 C         141.7313  140.4063  167.6865 C.ar    1  UNL1        0.0662
     17 N         140.7755  139.4568  167.0269 N.pl3   1  UNL1       -0.3113
     18 H         140.4978  138.6841  167.5701 H       1  UNL1        0.1523
     19 C         141.2835  142.6417  163.4122 C.2     1  UNL1       -0.0061
     20 C         140.4627  143.8961  163.3579 C.2     1  UNL1       -0.0132
     21 C         140.4721  144.7456  162.1217 C.3     1  UNL1        0.0796
     22 C         139.6513  146.0000  162.0673 C.3     1  UNL1        0.0222
     23 N         141.3023  144.3408  160.9397 N.3     1  UNL1       -0.2688
     24 C         141.3118  145.1902  159.7035 C.3     1  UNL1        0.0899
     25 C         142.1231  143.0864  160.9940 C.3     1  UNL1        0.0771
     26 C         142.1137  142.2369  162.2303 C.3     1  UNL1        0.0449
@<TRIPOS>BOND
     1     1     2    1
     2     2     3   ar
     3     3     4   ar
     4     4     5   ar
     5     5     6   ar
     6     6     7   ar
     7     6     8    1
     8     8    19    1
     9    19    20    2
    10    20    21    1
    11    21    22    1
    12    21    23    1
    13    23    24    1
    14    23    25    1
    15    25    26    1
    16     8     9    2
    17     9    10    1
    18    10    11   ar
    19    11    12   ar
    20    12    13    1
    21    12    14   ar
    22    14    15   ar
    23    15    16   ar
    24    16    17    1
    25     7     2   ar
    26    26    19    1
    27    16    10   ar
    28    17     5    1
    29    17    18    1
@<TRIPOS>MOLECULE
*****
 26 29 0 0 0
SMALL
GASTEIGER

@<TRIPOS>ATOM
      1 C         139.2356  138.3167  160.4500 C.3     1  UNL1        0.0310
      2 C         139.2869  138.6353  161.9149 C.ar    1  UNL1       -0.0217
      3 C         138.9106  137.5906  162.9233 C.ar    1  UNL1       -0.0030
      4 C         138.9618  137.9093  164.3882 C.ar    1  UNL1        0.0143
      5 C         139.3893  139.2727  164.8446 C.ar    1  UNL1        0.0497
      6 C         139.7656  140.3174  163.8362 C.ar    1  UNL1        0.0304
      7 C         139.7144  139.9987  162.3713 C.ar    1  UNL1       -0.0015
      8 C         140.2163  141.7280  164.0747 C.2     1  UNL1        0.0783
      9 N         140.4021  142.4424  165.3806 N.2     1  UNL1       -0.2444
     10 C         140.1830  141.9225  166.7704 C.ar    1  UNL1        0.0954
     11 C         140.4867  142.9690  167.8012 C.ar    1  UNL1        0.0317
     12 C         140.3315  142.6529  169.2592 C.ar    1  UNL1        0.0593
     13 CL        140.6353  143.6994  170.2901 Cl      1  UNL1       -0.0822
     14 C         139.8726  141.2903  169.6865 C.ar    1  UNL1        0.0128
     15 C         139.5688  140.2438  168.6557 C.ar    1  UNL1        0.0170
     16 C         139.7240  140.5599  167.1976 C.ar    1  UNL1        0.0662
     17 N         139.3708  139.3805  166.3406 N.pl3   1  UNL1       -0.3113
     18 H         139.0897  138.5702  166.8238 H       1  UNL1        0.1523
     19 C         140.5217  142.5305  162.8448 C.2     1  UNL1       -0.0061
     20 C         141.8531  142.3891  162.1684 C.2     1  UNL1       -0.0132
     21 C         142.1585  143.1916  160.9385 C.3     1  UNL1        0.0796
     22 C         143.4899  143.0502  160.2621 C.3     1  UNL1        0.0222
     23 N         141.1325  144.1355  160.3848 N.3     1  UNL1       -0.2688
     24 C         141.4379  144.9380  159.1549 C.3     1  UNL1        0.0899
     25 C         139.8011  144.2769  161.0611 C.3     1  UNL1        0.0771
     26 C         139.4957  143.4744  162.2911 C.3     1  UNL1        0.0449
@<TRIPOS>BOND
     1     1     2    1
     2     2     3   ar
     3     3     4   ar
     4     4     5   ar
     5     5     6   ar
     6     6     7   ar
     7     6     8    1
     8     8    19    1
     9    19    20    2
    10    20    21    1
    11    21    22    1
    12    21    23    1
    13    23    24    1
    14    23    25    1
    15    25    26    1
    16     8     9    2
    17     9    10    1
    18    10    11   ar
    19    11    12   ar
    20    12    13    1
    21    12    14   ar
    22    14    15   ar
    23    15    16   ar
    24    16    17    1
    25     7     2   ar
    26    26    19    1
    27    16    10   ar
    28    17     5    1
    29    17    18    1
@<TRIPOS>MOLECULE
*****
 26 29 0 0 0
SMALL
GASTEIGER

@<TRIPOS>ATOM
      1 C         143.5233  142.5854  166.4212 C.3     1  UNL1        0.0310
      2 C         143.1797  143.1156  165.0607 C.ar    1  UNL1       -0.0217
      3 C         143.8918  144.3218  164.5240 C.ar    1  UNL1       -0.0030
      4 C         143.5483  144.8520  163.1636 C.ar    1  UNL1        0.0143
      5 C         142.4926  144.1761  162.3398 C.ar    1  UNL1        0.0497
      6 C         141.7805  142.9699  162.8765 C.ar    1  UNL1        0.0304
      7 C         142.1241  142.4397  164.2369 C.ar    1  UNL1       -0.0015
      8 C         140.7049  142.1521  162.2252 C.2     1  UNL1        0.0783
      9 N         140.0757  142.3385  160.8762 N.2     1  UNL1       -0.2444
     10 C         140.3668  143.3887  159.8456 C.ar    1  UNL1        0.0954
     11 C         139.5080  143.2146  158.6281 C.ar    1  UNL1        0.0317
     12 C         139.6413  144.1638  157.4744 C.ar    1  UNL1        0.0593
     13 CL        138.7825  143.9898  156.2569 Cl      1  UNL1       -0.0822
     14 C         140.6334  145.2870  157.5380 C.ar    1  UNL1        0.0128
     15 C         141.4922  145.4611  158.7554 C.ar    1  UNL1        0.0170
     16 C         141.3590  144.5119  159.9093 C.ar    1  UNL1        0.0662
     17 N         142.3051  144.8623  161.0193 N.pl3   1  UNL1       -0.3113
     18 H         142.8787  145.6464  160.8601 H       1  UNL1        0.1523
     19 C         140.1904  140.9949  163.0289 C.2     1  UNL1       -0.0061
     20 C         140.8777  139.6638  162.9521 C.2     1  UNL1       -0.0132
     21 C         140.3632  138.5065  163.7559 C.3     1  UNL1        0.0796
     22 C         141.0506  137.1755  163.6790 C.3     1  UNL1        0.0222
     23 N         139.1614  138.6803  164.6365 N.3     1  UNL1       -0.2688
     24 C         138.6468  137.5231  165.4402 C.3     1  UNL1        0.0899
     25 C         138.4740  140.0113  164.7133 C.3     1  UNL1        0.0771
     26 C         138.9886  141.1686  163.9095 C.3     1  UNL1        0.0449
@<TRIPOS>BOND
     1     1     2    1
     2     2     3   ar
     3     3     4   ar
     4     4     5   ar
     5     5     6   ar
     6     6     7   ar
     7     6     8    1
     8     8    19    1
     9    19    20    2
    10    20    21    1
    11    21    22    1
    12    21    23    1
    13    23    24    1
    14    23    25    1
    15    25    26    1
    16     8     9    2
    17     9    10    1
    18    10    11   ar
    19    11    12   ar
    20    12    13    1
    21    12    14   ar
    22    14    15   ar
    23    15    16   ar
    24    16    17    1
    25     7     2   ar
    26    26    19    1
    27    16    10   ar
    28    17     5    1
    29    17    18    1
@<TRIPOS>MOLECULE
*****
 26 29 0 0 0
SMALL
GASTEIGER

@<TRIPOS>ATOM
      1 C         138.3079  145.3008  166.1549 C.3     1  UNL1        0.0310
      2 C         138.9713  144.4466  165.1156 C.ar    1  UNL1       -0.0217
      3 C         138.7979  144.7656  163.6602 C.ar    1  UNL1       -0.0030
      4 C         139.4613  143.9115  162.6209 C.ar    1  UNL1        0.0143
      5 C         140.2981  142.7382  163.0369 C.ar    1  UNL1        0.0497
      6 C         140.4715  142.4191  164.4922 C.ar    1  UNL1        0.0304
      7 C         139.8081  143.2733  165.5316 C.ar    1  UNL1       -0.0015
      8 C         141.2569  141.3050  165.1183 C.2     1  UNL1        0.0783
      9 N         142.0628  140.2347  164.4436 N.2     1  UNL1       -0.2444
     10 C         142.2823  140.0143  162.9762 C.ar    1  UNL1        0.0954
     11 C         143.1590  138.8232  162.7261 C.ar    1  UNL1        0.0317
     12 C         143.5037  138.4274  161.3209 C.ar    1  UNL1        0.0593
     13 CL        144.3804  137.2363  161.0707 Cl      1  UNL1       -0.0822
     14 C         142.9716  139.2228  160.1658 C.ar    1  UNL1        0.0128
     15 C         142.0949  140.4139  160.4159 C.ar    1  UNL1        0.0170
     16 C         141.7502  140.8097  161.8211 C.ar    1  UNL1        0.0662
     17 N         140.8672  142.0220  161.8481 N.pl3   1  UNL1       -0.3113
     18 H         140.6297  142.3971  160.9694 H       1  UNL1        0.1523
     19 C         141.2332  141.2543  166.6172 C.2     1  UNL1       -0.0061
     20 C         142.3614  141.8506  167.4056 C.2     1  UNL1       -0.0132
     21 C         142.3379  141.8000  168.9046 C.3     1  UNL1        0.0796
     22 C         143.4661  142.3963  169.6930 C.3     1  UNL1        0.0222
     23 N         141.1861  141.1530  169.6152 N.3     1  UNL1       -0.2688
     24 C         141.1625  141.1023  171.1141 C.3     1  UNL1        0.0899
     25 C         140.0579  140.5567  168.8268 C.3     1  UNL1        0.0771
     26 C         140.0815  140.6073  167.3278 C.3     1  UNL1        0.0449
@<TRIPOS>BOND
     1     1     2    1
     2     2     3   ar
     3     3     4   ar
     4     4     5   ar
     5     5     6   ar
     6     6     7   ar
     7     6     8    1
     8     8    19    1
     9    19    20    2
    10    20    21    1
    11    21    22    1
    12    21    23    1
    13    23    24    1
    14    23    25    1
    15    25    26    1
    16     8     9    2
    17     9    10    1
    18    10    11   ar
    19    11    12   ar
    20    12    13    1
    21    12    14   ar
    22    14    15   ar
    23    15    16   ar
    24    16    17    1
    25     7     2   ar
    26    26    19    1
    27    16    10   ar
    28    17     5    1
    29    17    18    1
@<TRIPOS>MOLECULE
*****
 26 29 0 0 0
SMALL
GASTEIGER

@<TRIPOS>ATOM
      1 C         143.5628  140.7213  160.6451 C.3     1  UNL1        0.0310
      2 C         143.4407  140.3950  162.1041 C.ar    1  UNL1       -0.0217
      3 C         144.1043  139.1684  162.6564 C.ar    1  UNL1       -0.0030
      4 C         143.9822  138.8422  164.1154 C.ar    1  UNL1        0.0143
      5 C         143.1965  139.7425  165.0221 C.ar    1  UNL1        0.0497
      6 C         142.5329  140.9690  164.4697 C.ar    1  UNL1        0.0304
      7 C         142.6550  141.2953  163.0108 C.ar    1  UNL1       -0.0015
      8 C         141.7094  141.9929  165.1932 C.2     1  UNL1        0.0783
      9 N         141.3460  142.0432  166.6477 N.2     1  UNL1       -0.2444
     10 C         141.7165  141.0819  167.7379 C.ar    1  UNL1        0.0954
     11 C         141.1442  141.5040  169.0586 C.ar    1  UNL1        0.0317
     12 C         141.3973  140.6773  170.2843 C.ar    1  UNL1        0.0593
     13 CL        140.8251  141.0994  171.6051 Cl      1  UNL1       -0.0822
     14 C         142.2226  139.4284  170.1894 C.ar    1  UNL1        0.0128
     15 C         142.7949  139.0062  168.8687 C.ar    1  UNL1        0.0170
     16 C         142.5418  139.8329  167.6429 C.ar    1  UNL1        0.0662
     17 N         143.2005  139.2368  166.4342 N.pl3   1  UNL1       -0.3113
     18 H         143.7017  138.4036  166.5882 H       1  UNL1        0.1523
     19 C         141.1790  143.1150  164.3509 C.2     1  UNL1       -0.0061
     20 C         139.7333  143.1343  163.9513 C.2     1  UNL1       -0.0132
     21 C         139.2028  144.2564  163.1089 C.3     1  UNL1        0.0796
     22 C         137.7571  144.2756  162.7094 C.3     1  UNL1        0.0222
     23 N         140.1180  145.3592  162.6661 N.3     1  UNL1       -0.2688
     24 C         139.5877  146.4813  161.8237 C.3     1  UNL1        0.0899
     25 C         141.5637  145.3400  163.0656 C.3     1  UNL1        0.0771
     26 C         142.0942  144.2179  163.9080 C.3     1  UNL1        0.0449
@<TRIPOS>BOND
     1     1     2    1
     2     2     3   ar
     3     3     4   ar
     4     4     5   ar
     5     5     6   ar
     6     6     7   ar
     7     6     8    1
     8     8    19    1
     9    19    20    2
    10    20    21    1
    11    21    22    1
    12    21    23    1
    13    23    24    1
    14    23    25    1
    15    25    26    1
    16     8     9    2
    17     9    10    1
    18    10    11   ar
    19    11    12   ar
    20    12    13    1
    21    12    14   ar
    22    14    15   ar
    23    15    16   ar
    24    16    17    1
    25     7     2   ar
    26    26    19    1
    27    16    10   ar
    28    17     5    1
    29    17    18    1
@<TRIPOS>MOLECULE
*****
 26 29 0 0 0
SMALL
GASTEIGER

@<TRIPOS>ATOM
      1 C         139.5537  144.9168  161.9840 C.3     1  UNL1        0.0310
      2 C         139.7641  144.2873  163.3291 C.ar    1  UNL1       -0.0217
      3 C         139.1112  144.8775  164.5438 C.ar    1  UNL1       -0.0030
      4 C         139.3216  144.2480  165.8889 C.ar    1  UNL1        0.0143
      5 C         140.1849  143.0284  166.0195 C.ar    1  UNL1        0.0497
      6 C         140.8379  142.4382  164.8048 C.ar    1  UNL1        0.0304
      7 C         140.6274  143.0677  163.4597 C.ar    1  UNL1       -0.0015
      8 C         141.7296  141.2356  164.7136 C.2     1  UNL1        0.0783
      9 N         142.1888  140.3260  165.8146 N.2     1  UNL1       -0.2444
     10 C         141.8695  140.3945  167.2785 C.ar    1  UNL1        0.0954
     11 C         142.5365  139.2858  168.0374 C.ar    1  UNL1        0.0317
     12 C         142.3462  139.1720  169.5209 C.ar    1  UNL1        0.0593
     13 CL        143.0132  138.0633  170.2798 Cl      1  UNL1       -0.0822
     14 C         141.4890  140.1670  170.2456 C.ar    1  UNL1        0.0128
     15 C         140.8220  141.2757  169.4868 C.ar    1  UNL1        0.0170
     16 C         141.0122  141.3895  168.0032 C.ar    1  UNL1        0.0662
     17 N         140.2625  142.5617  167.4429 N.pl3   1  UNL1       -0.3113
     18 H         139.7541  143.0953  168.0957 H       1  UNL1        0.1523
     19 C         142.2283  140.8977  163.3399 C.2     1  UNL1       -0.0061
     20 C         141.4241  139.9961  162.4509 C.2     1  UNL1       -0.0132
     21 C         141.9227  139.6582  161.0771 C.3     1  UNL1        0.0796
     22 C         141.1184  138.7565  160.1880 C.3     1  UNL1        0.0222
     23 N         143.2255  140.2219  160.5923 N.3     1  UNL1       -0.2688
     24 C         143.7241  139.8840  159.2186 C.3     1  UNL1        0.0899
     25 C         144.0297  141.1235  161.4813 C.3     1  UNL1        0.0771
     26 C         143.5311  141.4614  162.8551 C.3     1  UNL1        0.0449
@<TRIPOS>BOND
     1     1     2    1
     2     2     3   ar
     3     3     4   ar
     4     4     5   ar
     5     5     6   ar
     6     6     7   ar
     7     6     8    1
     8     8    19    1
     9    19    20    2
    10    20    21    1
    11    21    22    1
    12    21    23    1
    13    23    24    1
    14    23    25    1
    15    25    26    1
    16     8     9    2
    17     9    10    1
    18    10    11   ar
    19    11    12   ar
    20    12    13    1
    21    12    14   ar
    22    14    15   ar
    23    15    16   ar
    24    16    17    1
    25     7     2   ar
    26    26    19    1
    27    16    10   ar
    28    17     5    1
    29    17    18    1
@<TRIPOS>MOLECULE
*****
 26 29 0 0 0
SMALL
GASTEIGER

@<TRIPOS>ATOM
      1 C         143.4106  143.4141  161.1248 C.3     1  UNL1        0.0310
      2 C         143.3427  143.1295  162.5960 C.ar    1  UNL1       -0.0217
      3 C         144.4258  143.6264  163.5068 C.ar    1  UNL1       -0.0030
      4 C         144.3579  143.3418  164.9780 C.ar    1  UNL1        0.0143
      5 C         143.2068  142.5602  165.5383 C.ar    1  UNL1        0.0497
      6 C         142.1236  142.0633  164.6275 C.ar    1  UNL1        0.0304
      7 C         142.1915  142.3479  163.1563 C.ar    1  UNL1       -0.0015
      8 C         140.8979  141.2722  164.9766 C.2     1  UNL1        0.0783
      9 N         140.4527  140.7826  166.3227 N.2     1  UNL1       -0.2444
     10 C         141.1233  140.9632  167.6522 C.ar    1  UNL1        0.0954
     11 C         140.3404  140.3122  168.7538 C.ar    1  UNL1        0.0317
     12 C         140.8389  140.3761  170.1671 C.ar    1  UNL1        0.0593
     13 CL        140.0561  139.7251  171.2687 Cl      1  UNL1       -0.0822
     14 C         142.1202  141.0909  170.4788 C.ar    1  UNL1        0.0128
     15 C         142.9031  141.7419  169.3774 C.ar    1  UNL1        0.0170
     16 C         142.4046  141.6781  167.9640 C.ar    1  UNL1        0.0662
     17 N         143.3319  142.3888  167.0232 N.pl3   1  UNL1       -0.3113
     18 H         144.1278  142.7967  167.4347 H       1  UNL1        0.1523
     19 C         139.9985  140.9246  163.8276 C.2     1  UNL1       -0.0061
     20 C         140.2480  139.6790  163.0299 C.2     1  UNL1       -0.0132
     21 C         139.3486  139.3314  161.8809 C.3     1  UNL1        0.0796
     22 C         139.5981  138.0858  161.0832 C.3     1  UNL1        0.0222
     23 N         138.1995  140.2294  161.5295 N.3     1  UNL1       -0.2688
     24 C         137.3001  139.8819  160.3806 C.3     1  UNL1        0.0899
     25 C         137.9500  141.4750  162.3272 C.3     1  UNL1        0.0771
     26 C         138.8494  141.8226  163.4762 C.3     1  UNL1        0.0449
@<TRIPOS>BOND
     1     1     2    1
     2     2     3   ar
     3     3     4   ar
     4     4     5   ar
     5     5     6   ar
     6     6     7   ar
     7     6     8    1
     8     8    19    1
     9    19    20    2
    10    20    21    1
    11    21    22    1
    12    21    23    1
    13    23    24    1
    14    23    25    1
    15    25    26    1
    16     8     9    2
    17     9    10    1
    18    10    11   ar
    19    11    12   ar
    20    12    13    1
    21    12    14   ar
    22    14    15   ar
    23    15    16   ar
    24    16    17    1
    25     7     2   ar
    26    26    19    1
    27    16    10   ar
    28    17     5    1
    29    17    18    1
@<TRIPOS>MOLECULE
*****
 26 29 0 0 0
SMALL
GASTEIGER

@<TRIPOS>ATOM
      1 C         145.5839  142.2588  162.4166 C.3     1  UNL1        0.0310
      2 C         144.5304  141.9193  163.4289 C.ar    1  UNL1       -0.0217
      3 C         144.5421  142.5819  164.7746 C.ar    1  UNL1       -0.0030
      4 C         143.4886  142.2424  165.7869 C.ar    1  UNL1        0.0143
      5 C         142.4233  141.2405  165.4536 C.ar    1  UNL1        0.0497
      6 C         142.4115  140.5780  164.1079 C.ar    1  UNL1        0.0304
      7 C         143.4651  140.9174  163.0956 C.ar    1  UNL1       -0.0015
      8 C         141.4477  139.5594  163.5754 C.2     1  UNL1        0.0783
      9 N         140.2576  138.9517  164.2570 N.2     1  UNL1       -0.2444
     10 C         139.7375  139.2127  165.6395 C.ar    1  UNL1        0.0954
     11 C         138.5167  138.3908  165.9298 C.ar    1  UNL1        0.0317
     12 C         137.8373  138.5020  167.2625 C.ar    1  UNL1        0.0593
     13 CL        136.6165  137.6802  167.5529 Cl      1  UNL1       -0.0822
     14 C         138.3787  139.4350  168.3048 C.ar    1  UNL1        0.0128
     15 C         139.5994  140.2568  168.0145 C.ar    1  UNL1        0.0170
     16 C         140.2789  140.1456  166.6818 C.ar    1  UNL1        0.0662
     17 N         141.4742  141.0481  166.5991 N.pl3   1  UNL1       -0.3113
     18 H         141.6604  141.5852  167.4029 H       1  UNL1        0.1523
     19 C         141.7084  139.0858  162.1762 C.2     1  UNL1       -0.0061
     20 C         140.9193  139.6525  161.0334 C.2     1  UNL1       -0.0132
     21 C         141.1800  139.1789  159.6341 C.3     1  UNL1        0.0796
     22 C         140.3909  139.7457  158.4913 C.3     1  UNL1        0.0222
     23 N         142.2297  138.1385  159.3777 N.3     1  UNL1       -0.2688
     24 C         142.4904  137.6649  157.9786 C.3     1  UNL1        0.0899
     25 C         143.0188  137.5718  160.5206 C.3     1  UNL1        0.0771
     26 C         142.7582  138.0454  161.9198 C.3     1  UNL1        0.0449
@<TRIPOS>BOND
     1     1     2    1
     2     2     3   ar
     3     3     4   ar
     4     4     5   ar
     5     5     6   ar
     6     6     7   ar
     7     6     8    1
     8     8    19    1
     9    19    20    2
    10    20    21    1
    11    21    22    1
    12    21    23    1
    13    23    24    1
    14    23    25    1
    15    25    26    1
    16     8     9    2
    17     9    10    1
    18    10    11   ar
    19    11    12   ar
    20    12    13    1
    21    12    14   ar
    22    14    15   ar
    23    15    16   ar
    24    16    17    1
    25     7     2   ar
    26    26    19    1
    27    16    10   ar
    28    17     5    1
    29    17    18    1
