@<TRIPOS>MOLECULE
*****
 24 26 0 0 0
SMALL
GASTEIGER

@<TRIPOS>ATOM
      1 N         138.4225  143.5349  163.6493 N.ar    1  UNL1       -0.2244
      2 C         139.8093  143.9899  163.9956 C.ar    1  UNL1        0.1329
      3 C         140.1720  145.1152  163.0723 C.ar    1  UNL1        0.1709
      4 N         139.0093  145.3555  162.1554 N.ar    1  UNL1       -0.1138
      5 N         137.9281  144.3788  162.5120 N.ar    1  UNL1       -0.0622
      6 N         141.4694  145.8678  163.0668 N.pl3   1  UNL1       -0.3142
      7 H         141.5461  146.7130  162.5677 H       1  UNL1        0.1483
      8 C         142.6500  145.3329  163.8217 C.3     1  UNL1        0.1058
      9 C         143.6655  144.4808  163.1198 C.3     1  UNL1        0.0936
     10 N         143.9278  143.0822  163.5944 N.3     1  UNL1       -0.2712
     11 C         145.0356  142.2776  162.9814 C.3     1  UNL1        0.0721
     12 C         145.2979  140.8790  163.4559 C.3     1  UNL1        0.0174
     13 C         144.4524  140.2851  164.5434 C.3     1  UNL1        0.0029
     14 C         143.3448  141.0897  165.1564 C.3     1  UNL1        0.0174
     15 C         143.0825  142.4883  164.6818 C.3     1  UNL1        0.0721
     16 C         137.6634  142.4299  164.3222 C.3     1  UNL1        0.1557
     17 F         140.2182  137.0513  165.0596 F       1  UNL1       -0.2018
     18 C         139.5795  138.3959  164.8752 C.ar    1  UNL1        0.1674
     19 C         139.7888  139.4723  165.8987 C.ar    1  UNL1        0.0317
     20 C         139.1501  140.8170  165.7144 C.ar    1  UNL1        0.0001
     21 C         138.3021  141.0852  164.5066 C.ar    1  UNL1        0.0045
     22 C         138.0928  140.0089  163.4831 C.ar    1  UNL1        0.0296
     23 C         138.7315  138.6642  163.6674 C.ar    1  UNL1        0.1671
     24 F         138.5221  137.5878  162.6439 F       1  UNL1       -0.2018
@<TRIPOS>BOND
     1    17    18    1
     2    18    19   ar
     3    19    20   ar
     4    20    21   ar
     5    21    16    1
     6    16     1    1
     7     1     2   ar
     8     2     3   ar
     9     3     6    1
    10     6     8    1
    11     8     9    1
    12     9    10    1
    13    10    11    1
    14    11    12    1
    15    12    13    1
    16    13    14    1
    17    14    15    1
    18     3     4   ar
    19     4     5   ar
    20    21    22   ar
    21    22    23   ar
    22    23    24    1
    23    23    18   ar
    24     5     1   ar
    25    15    10    1
    26     6     7    1
@<TRIPOS>MOLECULE
*****
 24 26 0 0 0
SMALL
GASTEIGER

@<TRIPOS>ATOM
      1 N         138.2725  143.0882  162.5880 N.ar    1  UNL1       -0.2244
      2 C         139.2008  143.9155  163.4271 C.ar    1  UNL1        0.1329
      3 C         139.9424  144.8482  162.5158 C.ar    1  UNL1        0.1709
      4 N         139.4725  144.5973  161.1135 N.ar    1  UNL1       -0.1138
      5 N         138.4405  143.5096  161.1581 N.ar    1  UNL1       -0.0622
      6 N         140.9729  145.8549  162.9335 N.pl3   1  UNL1       -0.3142
      7 H         140.8669  146.8010  162.6825 H       1  UNL1        0.1483
      8 C         142.1648  145.4203  163.7336 C.3     1  UNL1        0.1058
      9 C         142.9623  144.2253  163.3025 C.3     1  UNL1        0.0936
     10 N         142.7226  142.8917  163.9461 N.3     1  UNL1       -0.2712
     11 C         143.1067  142.6707  165.3792 C.3     1  UNL1        0.0721
     12 C         142.8670  141.3372  166.0229 C.3     1  UNL1        0.0174
     13 C         142.2433  140.2246  165.2334 C.3     1  UNL1        0.0029
     14 C         141.8593  140.4456  163.8003 C.3     1  UNL1        0.0174
     15 C         142.0989  141.7792  163.1567 C.3     1  UNL1        0.0721
     16 C         137.3401  142.0261  163.0904 C.3     1  UNL1        0.1557
     17 F         139.5413  136.8853  165.2644 F       1  UNL1       -0.2018
     18 C         138.9910  138.1705  164.7209 C.ar    1  UNL1        0.1674
     19 C         138.7173  138.3077  163.2525 C.ar    1  UNL1        0.0317
     20 C         138.1670  139.5929  162.7090 C.ar    1  UNL1        0.0001
     21 C         137.8904  140.7409  163.6339 C.ar    1  UNL1        0.0045
     22 C         138.1642  140.6037  165.1023 C.ar    1  UNL1        0.0296
     23 C         138.7145  139.3185  165.6458 C.ar    1  UNL1        0.1671
     24 F         138.9882  139.1814  167.1142 F       1  UNL1       -0.2018
@<TRIPOS>BOND
     1    17    18    1
     2    18    19   ar
     3    19    20   ar
     4    20    21   ar
     5    21    16    1
     6    16     1    1
     7     1     2   ar
     8     2     3   ar
     9     3     6    1
    10     6     8    1
    11     8     9    1
    12     9    10    1
    13    10    11    1
    14    11    12    1
    15    12    13    1
    16    13    14    1
    17    14    15    1
    18     3     4   ar
    19     4     5   ar
    20    21    22   ar
    21    22    23   ar
    22    23    24    1
    23    23    18   ar
    24     5     1   ar
    25    15    10    1
    26     6     7    1
@<TRIPOS>MOLECULE
*****
 24 26 0 0 0
SMALL
GASTEIGER

@<TRIPOS>ATOM
      1 N         144.0140  141.7872  164.5428 N.ar    1  UNL1       -0.2244
      2 C         143.5616  140.6122  163.7274 C.ar    1  UNL1        0.1329
      3 C         144.5474  140.4133  162.6144 C.ar    1  UNL1        0.1709
      4 N         145.6090  141.4653  162.7419 N.ar    1  UNL1       -0.1138
      5 N         145.2794  142.3145  163.9336 N.ar    1  UNL1       -0.0622
      6 N         144.4829  139.3491  161.5592 N.pl3   1  UNL1       -0.3142
      7 H         144.9020  139.5004  160.6813 H       1  UNL1        0.1483
      8 C         143.7798  138.0546  161.8416 C.3     1  UNL1        0.1058
      9 C         142.3681  137.8510  161.3772 C.3     1  UNL1        0.0936
     10 N         141.2476  137.8212  162.3741 N.3     1  UNL1       -0.2712
     11 C         141.5435  137.6065  163.8289 C.3     1  UNL1        0.0721
     12 C         140.4230  137.5768  164.8257 C.3     1  UNL1        0.0174
     13 C         139.0066  137.7617  164.3677 C.3     1  UNL1        0.0029
     14 C         138.7108  137.9764  162.9129 C.3     1  UNL1        0.0174
     15 C         139.8313  138.0061  161.9161 C.3     1  UNL1        0.0721
     16 C         143.3225  142.3382  165.7544 C.3     1  UNL1        0.1557
     17 F         138.6192  139.4441  168.1003 F       1  UNL1       -0.2018
     18 C         139.7950  140.1676  167.5138 C.ar    1  UNL1        0.1674
     19 C         139.6273  140.9846  166.2671 C.ar    1  UNL1        0.0317
     20 C         140.8031  141.7081  165.6806 C.ar    1  UNL1        0.0001
     21 C         142.1467  141.6147  166.3409 C.ar    1  UNL1        0.0045
     22 C         142.3144  140.7978  167.5876 C.ar    1  UNL1        0.0296
     23 C         141.1386  140.0743  168.1741 C.ar    1  UNL1        0.1671
     24 F         141.3064  139.2573  169.4209 F       1  UNL1       -0.2018
@<TRIPOS>BOND
     1    17    18    1
     2    18    19   ar
     3    19    20   ar
     4    20    21   ar
     5    21    16    1
     6    16     1    1
     7     1     2   ar
     8     2     3   ar
     9     3     6    1
    10     6     8    1
    11     8     9    1
    12     9    10    1
    13    10    11    1
    14    11    12    1
    15    12    13    1
    16    13    14    1
    17    14    15    1
    18     3     4   ar
    19     4     5   ar
    20    21    22   ar
    21    22    23   ar
    22    23    24    1
    23    23    18   ar
    24     5     1   ar
    25    15    10    1
    26     6     7    1
@<TRIPOS>MOLECULE
*****
 24 26 0 0 0
SMALL
GASTEIGER

@<TRIPOS>ATOM
      1 N         142.5482  142.5471  163.8772 N.ar    1  UNL1       -0.2244
      2 C         142.0698  142.8530  162.4889 C.ar    1  UNL1        0.1329
      3 C         142.2536  144.3223  162.2485 C.ar    1  UNL1        0.1709
      4 N         142.8456  144.9243  163.4883 N.ar    1  UNL1       -0.1138
      5 N         143.0277  143.8272  164.4949 N.ar    1  UNL1       -0.0622
      6 N         141.9064  145.0599  160.9894 N.pl3   1  UNL1       -0.3142
      7 H         142.6055  145.2543  160.3240 H       1  UNL1        0.1483
      8 C         140.4941  145.5013  160.7440 C.3     1  UNL1        0.1058
      9 C         139.6117  145.8693  161.8999 C.3     1  UNL1        0.0936
     10 N         139.0264  144.7953  162.7682 N.3     1  UNL1       -0.2712
     11 C         138.2580  143.6657  162.1487 C.3     1  UNL1        0.0721
     12 C         137.6726  142.5917  163.0171 C.3     1  UNL1        0.0174
     13 C         137.8557  142.6474  164.5049 C.3     1  UNL1        0.0029
     14 C         138.6240  143.7769  165.1243 C.3     1  UNL1        0.0174
     15 C         139.2094  144.8509  164.2559 C.3     1  UNL1        0.0721
     16 C         142.5473  141.1979  164.5328 C.3     1  UNL1        0.1557
     17 F         137.4305  138.9021  166.6653 F       1  UNL1       -0.2018
     18 C         138.7097  139.4761  166.1322 C.ar    1  UNL1        0.1674
     19 C         139.5405  140.3824  166.9914 C.ar    1  UNL1        0.0317
     20 C         140.8197  140.9563  166.4582 C.ar    1  UNL1        0.0001
     21 C         141.2681  140.6240  165.0659 C.ar    1  UNL1        0.0045
     22 C         140.4372  139.7177  164.2068 C.ar    1  UNL1        0.0296
     23 C         139.1580  139.1437  164.7399 C.ar    1  UNL1        0.1671
     24 F         138.3271  138.2374  163.8807 F       1  UNL1       -0.2018
@<TRIPOS>BOND
     1    17    18    1
     2    18    19   ar
     3    19    20   ar
     4    20    21   ar
     5    21    16    1
     6    16     1    1
     7     1     2   ar
     8     2     3   ar
     9     3     6    1
    10     6     8    1
    11     8     9    1
    12     9    10    1
    13    10    11    1
    14    11    12    1
    15    12    13    1
    16    13    14    1
    17    14    15    1
    18     3     4   ar
    19     4     5   ar
    20    21    22   ar
    21    22    23   ar
    22    23    24    1
    23    23    18   ar
    24     5     1   ar
    25    15    10    1
    26     6     7    1
@<TRIPOS>MOLECULE
*****
 24 26 0 0 0
SMALL
GASTEIGER

@<TRIPOS>ATOM
      1 N         142.3162  142.1081  163.7391 N.ar    1  UNL1       -0.2244
      2 C         141.9231  142.6584  162.4002 C.ar    1  UNL1        0.1329
      3 C         142.2119  144.1304  162.4011 C.ar    1  UNL1        0.1709
      4 N         142.7835  144.4898  163.7406 N.ar    1  UNL1       -0.1138
      5 N         142.8479  143.2400  164.5675 N.ar    1  UNL1       -0.0622
      6 N         141.9713  145.0768  161.2625 N.pl3   1  UNL1       -0.3142
      7 H         142.7322  145.4332  160.7495 H       1  UNL1        0.1483
      8 C         140.5714  145.4802  160.9056 C.3     1  UNL1        0.1058
      9 C         139.5896  145.8194  161.9877 C.3     1  UNL1        0.0936
     10 N         139.0046  144.7307  162.8377 N.3     1  UNL1       -0.2712
     11 C         139.1793  144.7664  164.3272 C.3     1  UNL1        0.0721
     12 C         138.5943  143.6777  165.1772 C.3     1  UNL1        0.0174
     13 C         137.8345  142.5534  164.5378 C.3     1  UNL1        0.0029
     14 C         137.6598  142.5178  163.0485 C.3     1  UNL1        0.0174
     15 C         138.2448  143.6064  162.1984 C.3     1  UNL1        0.0721
     16 C         142.1983  140.6772  164.1734 C.3     1  UNL1        0.1557
     17 F         137.2557  138.8007  167.0107 F       1  UNL1       -0.2018
     18 C         138.4914  139.2698  166.3014 C.ar    1  UNL1        0.1674
     19 C         138.7216  138.8938  164.8677 C.ar    1  UNL1        0.0317
     20 C         139.9572  139.3629  164.1584 C.ar    1  UNL1        0.0001
     21 C         140.9626  140.2081  164.8827 C.ar    1  UNL1        0.0045
     22 C         140.7324  140.5842  166.3164 C.ar    1  UNL1        0.0296
     23 C         139.4968  140.1150  167.0257 C.ar    1  UNL1        0.1671
     24 F         139.2666  140.4911  168.4595 F       1  UNL1       -0.2018
@<TRIPOS>BOND
     1    17    18    1
     2    18    19   ar
     3    19    20   ar
     4    20    21   ar
     5    21    16    1
     6    16     1    1
     7     1     2   ar
     8     2     3   ar
     9     3     6    1
    10     6     8    1
    11     8     9    1
    12     9    10    1
    13    10    11    1
    14    11    12    1
    15    12    13    1
    16    13    14    1
    17    14    15    1
    18     3     4   ar
    19     4     5   ar
    20    21    22   ar
    21    22    23   ar
    22    23    24    1
    23    23    18   ar
    24     5     1   ar
    25    15    10    1
    26     6     7    1
@<TRIPOS>MOLECULE
*****
 24 26 0 0 0
SMALL
GASTEIGER

@<TRIPOS>ATOM
      1 N         141.0336  145.1671  163.1028 N.ar    1  UNL1       -0.2244
      2 C         139.9179  144.2480  163.5035 C.ar    1  UNL1        0.1329
      3 C         138.7479  144.5202  162.6051 C.ar    1  UNL1        0.1709
      4 N         139.1405  145.6075  161.6492 N.ar    1  UNL1       -0.1138
      5 N         140.5531  146.0073  161.9568 N.ar    1  UNL1       -0.0622
      6 N         137.4187  143.8268  162.6540 N.pl3   1  UNL1       -0.3142
      7 H         136.6358  144.2317  162.2155 H       1  UNL1        0.1483
      8 C         137.2823  142.5165  163.3711 C.3     1  UNL1        0.1058
      9 C         137.6201  141.2366  162.6656 C.3     1  UNL1        0.0936
     10 N         138.0703  140.0421  163.4533 N.3     1  UNL1       -0.2712
     11 C         138.1627  140.1211  164.9485 C.3     1  UNL1        0.0721
     12 C         138.6129  138.9267  165.7362 C.3     1  UNL1        0.0174
     13 C         138.9708  137.6532  165.0288 C.3     1  UNL1        0.0029
     14 C         138.8784  137.5742  163.5338 C.3     1  UNL1        0.0174
     15 C         138.4281  138.7687  162.7460 C.3     1  UNL1        0.0721
     16 C         142.3914  145.2343  163.7368 C.3     1  UNL1        0.1557
     17 F         145.6461  140.2367  164.3938 F       1  UNL1       -0.2018
     18 C         144.8324  141.4861  164.2296 C.ar    1  UNL1        0.1674
     19 C         145.1156  142.4214  163.0916 C.ar    1  UNL1        0.0317
     20 C         144.3019  143.6708  162.9273 C.ar    1  UNL1        0.0001
     21 C         143.2051  143.9849  163.9011 C.ar    1  UNL1        0.0045
     22 C         142.9219  143.0496  165.0390 C.ar    1  UNL1        0.0296
     23 C         143.7355  141.8002  165.2033 C.ar    1  UNL1        0.1671
     24 F         143.4523  140.8650  166.3414 F       1  UNL1       -0.2018
@<TRIPOS>BOND
     1    17    18    1
     2    18    19   ar
     3    19    20   ar
     4    20    21   ar
     5    21    16    1
     6    16     1    1
     7     1     2   ar
     8     2     3   ar
     9     3     6    1
    10     6     8    1
    11     8     9    1
    12     9    10    1
    13    10    11    1
    14    11    12    1
    15    12    13    1
    16    13    14    1
    17    14    15    1
    18     3     4   ar
    19     4     5   ar
    20    21    22   ar
    21    22    23   ar
    22    23    24    1
    23    23    18   ar
    24     5     1   ar
    25    15    10    1
    26     6     7    1
@<TRIPOS>MOLECULE
*****
 24 26 0 0 0
SMALL
GASTEIGER

@<TRIPOS>ATOM
      1 N         138.0021  140.4706  164.1528 N.ar    1  UNL1       -0.2244
      2 C         137.9990  141.9608  164.3240 C.ar    1  UNL1        0.1329
      3 C         137.6880  142.5797  162.9933 C.ar    1  UNL1        0.1709
      4 N         137.4990  141.4718  161.9998 N.ar    1  UNL1       -0.1138
      5 N         137.6931  140.1684  162.7163 N.ar    1  UNL1       -0.0622
      6 N         137.5843  144.0483  162.7066 N.pl3   1  UNL1       -0.3142
      7 H         136.7483  144.4214  162.3445 H       1  UNL1        0.1483
      8 C         138.7544  144.9486  162.9716 C.3     1  UNL1        0.1058
      9 C         139.8287  145.1066  161.9368 C.3     1  UNL1        0.0936
     10 N         141.2561  144.8052  162.2855 N.3     1  UNL1       -0.2712
     11 C         142.0875  143.9535  161.3725 C.3     1  UNL1        0.0721
     12 C         143.5150  143.6521  161.7212 C.3     1  UNL1        0.0174
     13 C         144.1110  144.2024  162.9831 C.3     1  UNL1        0.0029
     14 C         143.2796  145.0540  163.8960 C.3     1  UNL1        0.0174
     15 C         141.8522  145.3554  163.5473 C.3     1  UNL1        0.0721
     16 C         138.2677  139.4601  165.2290 C.3     1  UNL1        0.1557
     17 F         143.0698  140.0482  168.7778 F       1  UNL1       -0.2018
     18 C         141.8692  139.9011  167.8906 C.ar    1  UNL1        0.1674
     19 C         142.0465  139.5850  166.4350 C.ar    1  UNL1        0.0317
     20 C         140.8460  139.4380  165.5478 C.ar    1  UNL1        0.0001
     21 C         139.4682  139.6071  166.1162 C.ar    1  UNL1        0.0045
     22 C         139.2909  139.9232  167.5717 C.ar    1  UNL1        0.0296
     23 C         140.4915  140.0702  168.4589 C.ar    1  UNL1        0.1671
     24 F         140.3141  140.3864  169.9145 F       1  UNL1       -0.2018
@<TRIPOS>BOND
     1    17    18    1
     2    18    19   ar
     3    19    20   ar
     4    20    21   ar
     5    21    16    1
     6    16     1    1
     7     1     2   ar
     8     2     3   ar
     9     3     6    1
    10     6     8    1
    11     8     9    1
    12     9    10    1
    13    10    11    1
    14    11    12    1
    15    12    13    1
    16    13    14    1
    17    14    15    1
    18     3     4   ar
    19     4     5   ar
    20    21    22   ar
    21    22    23   ar
    22    23    24    1
    23    23    18   ar
    24     5     1   ar
    25    15    10    1
    26     6     7    1
@<TRIPOS>MOLECULE
*****
 24 26 0 0 0
SMALL
GASTEIGER

@<TRIPOS>ATOM
      1 N         138.9457  143.6239  163.1255 N.ar    1  UNL1       -0.2244
      2 C         138.5310  142.1969  163.3301 C.ar    1  UNL1        0.1329
      3 C         137.7975  141.7466  162.1015 C.ar    1  UNL1        0.1709
      4 N         137.7590  142.8953  161.1376 N.ar    1  UNL1       -0.1138
      5 N         138.4686  144.0555  161.7704 N.ar    1  UNL1       -0.0622
      6 N         137.2065  140.3865  161.8764 N.pl3   1  UNL1       -0.3142
      7 H         136.4723  140.0678  162.4496 H       1  UNL1        0.1483
      8 C         137.7339  139.5120  160.7778 C.3     1  UNL1        0.1058
      9 C         138.8246  138.5230  161.0648 C.3     1  UNL1        0.0936
     10 N         139.5132  138.5315  162.3973 N.3     1  UNL1       -0.2712
     11 C         140.7471  139.3605  162.5987 C.3     1  UNL1        0.0721
     12 C         141.4357  139.3691  163.9312 C.3     1  UNL1        0.0174
     13 C         140.8905  138.5486  165.0625 C.3     1  UNL1        0.0029
     14 C         139.6567  137.7197  164.8611 C.3     1  UNL1        0.0174
     15 C         138.9681  137.7111  163.5286 C.3     1  UNL1        0.0721
     16 C         139.7043  144.4705  164.1041 C.3     1  UNL1        0.1557
     17 F         145.4818  143.3076  165.2300 F       1  UNL1       -0.2018
     18 C         144.0375  143.5983  164.9485 C.ar    1  UNL1        0.1674
     19 C         143.6604  144.7855  164.1128 C.ar    1  UNL1        0.0317
     20 C         142.2160  145.0762  163.8314 C.ar    1  UNL1        0.0001
     21 C         141.1487  144.1798  164.3856 C.ar    1  UNL1        0.0045
     22 C         141.5257  142.9927  165.2213 C.ar    1  UNL1        0.0296
     23 C         142.9701  142.7019  165.5028 C.ar    1  UNL1        0.1671
     24 F         143.3472  141.5147  166.3385 F       1  UNL1       -0.2018
@<TRIPOS>BOND
     1    17    18    1
     2    18    19   ar
     3    19    20   ar
     4    20    21   ar
     5    21    16    1
     6    16     1    1
     7     1     2   ar
     8     2     3   ar
     9     3     6    1
    10     6     8    1
    11     8     9    1
    12     9    10    1
    13    10    11    1
    14    11    12    1
    15    12    13    1
    16    13    14    1
    17    14    15    1
    18     3     4   ar
    19     4     5   ar
    20    21    22   ar
    21    22    23   ar
    22    23    24    1
    23    23    18   ar
    24     5     1   ar
    25    15    10    1
    26     6     7    1
@<TRIPOS>MOLECULE
*****
 24 26 0 0 0
SMALL
GASTEIGER

@<TRIPOS>ATOM
      1 N         138.3491  139.3505  168.0957 N.ar    1  UNL1       -0.2244
      2 C         139.5703  140.2212  168.1230 C.ar    1  UNL1        0.1329
      3 C         139.7648  140.7029  169.5302 C.ar    1  UNL1        0.1709
      4 N         138.6639  140.1298  170.3727 N.ar    1  UNL1       -0.1138
      5 N         137.7889  139.2941  169.4861 N.ar    1  UNL1       -0.0622
      6 N         140.8668  141.6000  170.0107 N.pl3   1  UNL1       -0.3142
      7 H         141.1526  141.5678  170.9522 H       1  UNL1        0.1483
      8 C         141.5333  142.5462  169.0566 C.3     1  UNL1        0.1058
      9 C         142.8562  142.1885  168.4469 C.3     1  UNL1        0.0936
     10 N         142.9201  141.2005  167.3200 N.3     1  UNL1       -0.2712
     11 C         142.9785  141.6839  165.9011 C.3     1  UNL1        0.0721
     12 C         143.0423  140.6960  164.7742 C.3     1  UNL1        0.0174
     13 C         143.0479  139.2246  165.0662 C.3     1  UNL1        0.0029
     14 C         142.9895  138.7413  166.4850 C.3     1  UNL1        0.0174
     15 C         142.9256  139.7292  167.6119 C.3     1  UNL1        0.0721
     16 C         137.7869  138.6579  166.8899 C.3     1  UNL1        0.1557
     17 F         140.5786  139.1076  161.5980 F       1  UNL1       -0.2018
     18 C         139.8806  138.9952  162.9210 C.ar    1  UNL1        0.1674
     19 C         138.9808  140.0996  163.3905 C.ar    1  UNL1        0.0317
     20 C         138.2829  139.9872  164.7135 C.ar    1  UNL1        0.0001
     21 C         138.4848  138.7703  165.5669 C.ar    1  UNL1        0.0045
     22 C         139.3846  137.6659  165.0974 C.ar    1  UNL1        0.0296
     23 C         140.0825  137.7783  163.7744 C.ar    1  UNL1        0.1671
     24 F         140.9824  136.6738  163.3049 F       1  UNL1       -0.2018
@<TRIPOS>BOND
     1    17    18    1
     2    18    19   ar
     3    19    20   ar
     4    20    21   ar
     5    21    16    1
     6    16     1    1
     7     1     2   ar
     8     2     3   ar
     9     3     6    1
    10     6     8    1
    11     8     9    1
    12     9    10    1
    13    10    11    1
    14    11    12    1
    15    12    13    1
    16    13    14    1
    17    14    15    1
    18     3     4   ar
    19     4     5   ar
    20    21    22   ar
    21    22    23   ar
    22    23    24    1
    23    23    18   ar
    24     5     1   ar
    25    15    10    1
    26     6     7    1
