@<TRIPOS>MOLECULE
*****
 30 33 0 0 0
SMALL
GASTEIGER

@<TRIPOS>ATOM
      1 O         142.6621  144.1738  158.9176 O.2     1  UNL1       -0.2522
      2 C         142.9302  143.3185  160.1203 C.2     1  UNL1        0.3079
      3 N         142.0437  143.4207  161.3261 N.am    1  UNL1       -0.2844
      4 N         144.0849  142.3610  160.1173 N.am    1  UNL1       -0.2448
      5 H         142.2198  142.8593  162.1155 H       1  UNL1        0.1513
      6 C         144.3530  141.5057  161.3200 C.ar    1  UNL1        0.0552
      7 C         143.7611  140.1304  161.4093 C.ar    1  UNL1        0.0155
      8 C         144.0293  139.2750  162.6120 C.ar    1  UNL1        0.0080
      9 C         144.8894  139.7950  163.7254 C.ar    1  UNL1        0.0346
     10 BR        145.1576  138.9397  164.9281 Br      1  UNL1       -0.0490
     11 C         145.4814  141.1703  163.6361 C.ar    1  UNL1        0.0080
     12 C         145.2132  142.0257  162.4334 C.ar    1  UNL1        0.0155
     13 C         144.9713  142.2589  158.9116 C.3     1  UNL1        0.0840
     14 C         144.6013  141.3410  157.7843 C.3     1  UNL1        0.0376
     15 C         145.4877  141.2389  156.5786 C.3     1  UNL1        0.0738
     16 N         146.7441  142.0545  156.5001 N.3     1  UNL1       -0.2738
     17 C         147.1141  142.9723  157.6274 C.3     1  UNL1        0.0738
     18 C         146.2277  143.0745  158.8332 C.3     1  UNL1        0.0376
     19 C         147.6306  141.9524  155.2944 C.3     1  UNL1        0.0575
     20 C         147.1873  142.0410  153.8641 C.3     1  UNL1        0.0160
     21 C         148.3988  141.8871  152.9930 C.3     1  UNL1        0.0014
     22 C         149.5907  141.7032  153.8849 C.3     1  UNL1        0.0014
     23 C         149.1160  141.7436  155.3072 C.3     1  UNL1        0.0160
     24 C         140.8891  144.3782  161.3291 C.3     1  UNL1        0.1177
     25 C         139.8649  144.3146  162.4232 C.ar    1  UNL1       -0.0025
     26 C         140.1616  144.9176  163.7642 C.ar    1  UNL1       -0.0026
     27 C         139.1374  144.8541  164.8582 C.ar    1  UNL1       -0.0003
     28 C         137.8165  144.1875  164.6112 C.ar    1  UNL1       -0.0000
     29 C         137.5199  143.5845  163.2703 C.ar    1  UNL1       -0.0003
     30 C         138.5440  143.6480  162.1762 C.ar    1  UNL1       -0.0026
@<TRIPOS>BOND
     1     1     2    2
     2     2     3   am
     3     3    24    1
     4    24    25    1
     5    25    26   ar
     6    26    27   ar
     7    27    28   ar
     8    28    29   ar
     9    29    30   ar
    10     2     4   am
    11     4     6    1
    12     6     7   ar
    13     7     8   ar
    14     8     9   ar
    15     9    10    1
    16     9    11   ar
    17    11    12   ar
    18     4    13    1
    19    13    14    1
    20    14    15    1
    21    15    16    1
    22    16    19    1
    23    19    20    1
    24    20    21    1
    25    21    22    1
    26    22    23    1
    27    16    17    1
    28    17    18    1
    29    30    25   ar
    30    12     6   ar
    31    18    13    1
    32    23    19    1
    33     3     5    1
@<TRIPOS>MOLECULE
*****
 30 33 0 0 0
SMALL
GASTEIGER

@<TRIPOS>ATOM
      1 O         141.1210  138.1832  163.8048 O.2     1  UNL1       -0.2522
      2 C         140.8193  139.6473  163.6817 C.2     1  UNL1        0.3079
      3 N         140.3568  140.4212  164.8806 N.am    1  UNL1       -0.2844
      4 N         140.9800  140.3376  162.3597 N.am    1  UNL1       -0.2448
      5 H         140.1588  141.3822  164.7997 H       1  UNL1        0.1513
      6 C         140.6783  141.8018  162.2365 C.ar    1  UNL1        0.0552
      7 C         141.7920  142.8047  162.2968 C.ar    1  UNL1        0.0155
      8 C         141.4903  144.2689  162.1736 C.ar    1  UNL1        0.0080
      9 C         140.0749  144.7301  161.9902 C.ar    1  UNL1        0.0346
     10 BR        139.7732  146.1943  161.8671 Br      1  UNL1       -0.0490
     11 C         138.9611  143.7272  161.9300 C.ar    1  UNL1        0.0080
     12 C         139.2628  142.2631  162.0531 C.ar    1  UNL1        0.0155
     13 C         141.4425  139.5637  161.1609 C.3     1  UNL1        0.0840
     14 C         140.4589  139.1633  160.1015 C.3     1  UNL1        0.0376
     15 C         140.9213  138.3894  158.9027 C.3     1  UNL1        0.0738
     16 N         142.3673  138.0159  158.7632 N.3     1  UNL1       -0.2738
     17 C         143.3509  138.4163  159.8225 C.3     1  UNL1        0.0738
     18 C         142.8885  139.1902  161.0214 C.3     1  UNL1        0.0376
     19 C         142.8298  137.2420  157.5644 C.3     1  UNL1        0.0575
     20 C         142.9401  135.7492  157.4674 C.3     1  UNL1        0.0160
     21 C         143.4416  135.4096  156.0951 C.3     1  UNL1        0.0014
     22 C         143.6413  136.6926  155.3439 C.3     1  UNL1        0.0014
     23 C         143.2632  137.8250  156.2520 C.3     1  UNL1        0.0160
     24 C         140.1961  139.7310  166.2025 C.3     1  UNL1        0.1177
     25 C         140.0804  140.5387  167.4612 C.ar    1  UNL1       -0.0025
     26 C         140.6675  141.9176  167.5241 C.ar    1  UNL1       -0.0026
     27 C         140.5518  142.7252  168.7828 C.ar    1  UNL1       -0.0003
     28 C         139.8491  142.1539  169.9786 C.ar    1  UNL1       -0.0000
     29 C         139.2621  140.7750  169.9157 C.ar    1  UNL1       -0.0003
     30 C         139.3777  139.9674  168.6570 C.ar    1  UNL1       -0.0026
@<TRIPOS>BOND
     1     1     2    2
     2     2     3   am
     3     3    24    1
     4    24    25    1
     5    25    26   ar
     6    26    27   ar
     7    27    28   ar
     8    28    29   ar
     9    29    30   ar
    10     2     4   am
    11     4     6    1
    12     6     7   ar
    13     7     8   ar
    14     8     9   ar
    15     9    10    1
    16     9    11   ar
    17    11    12   ar
    18     4    13    1
    19    13    14    1
    20    14    15    1
    21    15    16    1
    22    16    19    1
    23    19    20    1
    24    20    21    1
    25    21    22    1
    26    22    23    1
    27    16    17    1
    28    17    18    1
    29    30    25   ar
    30    12     6   ar
    31    18    13    1
    32    23    19    1
    33     3     5    1
@<TRIPOS>MOLECULE
*****
 30 33 0 0 0
SMALL
GASTEIGER

@<TRIPOS>ATOM
      1 O         142.2844  140.9488  157.9724 O.2     1  UNL1       -0.2522
      2 C         141.7372  140.4874  159.2906 C.2     1  UNL1        0.3079
      3 N         141.6593  141.4413  160.4456 N.am    1  UNL1       -0.2844
      4 N         141.2679  139.0721  159.4538 N.am    1  UNL1       -0.2448
      5 H         141.3001  141.1385  161.3108 H       1  UNL1        0.1513
      6 C         140.7207  138.6107  160.7720 C.ar    1  UNL1        0.0552
      7 C         139.2510  138.7166  161.0524 C.ar    1  UNL1        0.0155
      8 C         138.7038  138.2551  162.3706 C.ar    1  UNL1        0.0080
      9 C         139.6263  137.6878  163.4084 C.ar    1  UNL1        0.0346
     10 BR        139.0791  137.2264  164.7266 Br      1  UNL1       -0.0490
     11 C         141.0960  137.5819  163.1280 C.ar    1  UNL1        0.0080
     12 C         141.6432  138.0433  161.8098 C.ar    1  UNL1        0.0155
     13 C         141.3459  138.1182  158.2988 C.3     1  UNL1        0.0840
     14 C         142.6069  137.3454  158.0481 C.3     1  UNL1        0.0376
     15 C         142.6848  136.3916  156.8931 C.3     1  UNL1        0.0738
     16 N         141.5018  136.2104  155.9888 N.3     1  UNL1       -0.2738
     17 C         140.2409  136.9832  156.2395 C.3     1  UNL1        0.0738
     18 C         140.1629  137.9371  157.3945 C.3     1  UNL1        0.0376
     19 C         141.5798  135.2566  154.8338 C.3     1  UNL1        0.0575
     20 C         141.4855  133.7618  154.9169 C.3     1  UNL1        0.0160
     21 C         141.6132  133.2114  153.5273 C.3     1  UNL1        0.0014
     22 C         141.7863  134.3660  152.5854 C.3     1  UNL1        0.0014
     23 C         141.7656  135.6299  153.3929 C.3     1  UNL1        0.0160
     24 C         142.1286  142.8566  160.2824 C.3     1  UNL1        0.1177
     25 C         142.4026  143.7002  161.4921 C.ar    1  UNL1       -0.0025
     26 C         141.3099  144.5401  162.0840 C.ar    1  UNL1       -0.0026
     27 C         141.5840  145.3835  163.2937 C.ar    1  UNL1       -0.0003
     28 C         142.9509  145.3871  163.9114 C.ar    1  UNL1       -0.0000
     29 C         144.0436  144.5472  163.3195 C.ar    1  UNL1       -0.0003
     30 C         143.7695  143.7037  162.1099 C.ar    1  UNL1       -0.0026
@<TRIPOS>BOND
     1     1     2    2
     2     2     3   am
     3     3    24    1
     4    24    25    1
     5    25    26   ar
     6    26    27   ar
     7    27    28   ar
     8    28    29   ar
     9    29    30   ar
    10     2     4   am
    11     4     6    1
    12     6     7   ar
    13     7     8   ar
    14     8     9   ar
    15     9    10    1
    16     9    11   ar
    17    11    12   ar
    18     4    13    1
    19    13    14    1
    20    14    15    1
    21    15    16    1
    22    16    19    1
    23    19    20    1
    24    20    21    1
    25    21    22    1
    26    22    23    1
    27    16    17    1
    28    17    18    1
    29    30    25   ar
    30    12     6   ar
    31    18    13    1
    32    23    19    1
    33     3     5    1
@<TRIPOS>MOLECULE
*****
 30 33 0 0 0
SMALL
GASTEIGER

@<TRIPOS>ATOM
      1 O         141.9002  141.1849  158.1534 O.2     1  UNL1       -0.2522
      2 C         141.3791  140.6778  159.4653 C.2     1  UNL1        0.3079
      3 N         141.2213  141.6179  160.6236 N.am    1  UNL1       -0.2844
      4 N         141.0158  139.2306  159.6191 N.am    1  UNL1       -0.2448
      5 H         140.8793  141.2850  161.4847 H       1  UNL1        0.1513
      6 C         140.4946  138.7235  160.9311 C.ar    1  UNL1        0.0552
      7 C         141.4443  138.1706  161.9521 C.ar    1  UNL1        0.0155
      8 C         140.9232  137.6634  163.2640 C.ar    1  UNL1        0.0080
      9 C         139.4524  137.7092  163.5550 C.ar    1  UNL1        0.0346
     10 BR        138.9313  137.2021  164.8670 Br      1  UNL1       -0.0490
     11 C         138.5028  138.2621  162.5341 C.ar    1  UNL1        0.0080
     12 C         139.0239  138.7692  161.2221 C.ar    1  UNL1        0.0155
     13 C         141.1735  138.2906  158.4610 C.3     1  UNL1        0.0840
     14 C         140.0208  138.0429  157.5336 C.3     1  UNL1        0.0376
     15 C         140.1786  137.1028  156.3754 C.3     1  UNL1        0.0738
     16 N         141.4891  136.4105  156.1445 N.3     1  UNL1       -0.2738
     17 C         142.6418  136.6582  157.0718 C.3     1  UNL1        0.0738
     18 C         142.4840  137.5983  158.2300 C.3     1  UNL1        0.0376
     19 C         141.6469  135.4705  154.9863 C.3     1  UNL1        0.0575
     20 C         141.9063  133.9959  155.0767 C.3     1  UNL1        0.0160
     21 C         141.9927  133.4540  153.6805 C.3     1  UNL1        0.0014
     22 C         141.7866  134.5938  152.7274 C.3     1  UNL1        0.0014
     23 C         141.5729  135.8400  153.5344 C.3     1  UNL1        0.0160
     24 C         141.5846  143.0650  160.4698 C.3     1  UNL1        0.1177
     25 C         142.1599  143.8214  161.6305 C.ar    1  UNL1       -0.0025
     26 C         143.6147  143.6836  161.9685 C.ar    1  UNL1       -0.0026
     27 C         144.1899  144.4399  163.1292 C.ar    1  UNL1       -0.0003
     28 C         143.3101  145.3340  163.9518 C.ar    1  UNL1       -0.0000
     29 C         141.8552  145.4717  163.6138 C.ar    1  UNL1       -0.0003
     30 C         141.2801  144.7154  162.4531 C.ar    1  UNL1       -0.0026
@<TRIPOS>BOND
     1     1     2    2
     2     2     3   am
     3     3    24    1
     4    24    25    1
     5    25    26   ar
     6    26    27   ar
     7    27    28   ar
     8    28    29   ar
     9    29    30   ar
    10     2     4   am
    11     4     6    1
    12     6     7   ar
    13     7     8   ar
    14     8     9   ar
    15     9    10    1
    16     9    11   ar
    17    11    12   ar
    18     4    13    1
    19    13    14    1
    20    14    15    1
    21    15    16    1
    22    16    19    1
    23    19    20    1
    24    20    21    1
    25    21    22    1
    26    22    23    1
    27    16    17    1
    28    17    18    1
    29    30    25   ar
    30    12     6   ar
    31    18    13    1
    32    23    19    1
    33     3     5    1
@<TRIPOS>MOLECULE
*****
 30 33 0 0 0
SMALL
GASTEIGER

@<TRIPOS>ATOM
      1 O         141.4939  137.3519  161.9118 O.2     1  UNL1       -0.2522
      2 C         141.3229  138.8395  161.8231 C.2     1  UNL1        0.3079
      3 N         141.2865  139.6663  163.0742 N.am    1  UNL1       -0.2844
      4 N         141.1884  139.5003  160.4832 N.am    1  UNL1       -0.2448
      5 H         141.1742  140.6426  163.0159 H       1  UNL1        0.1513
      6 C         141.0174  140.9879  160.3944 C.ar    1  UNL1        0.0552
      7 C         139.6443  141.5894  160.4452 C.ar    1  UNL1        0.0155
      8 C         139.4733  143.0769  160.3564 C.ar    1  UNL1        0.0080
      9 C         140.6755  143.9630  160.2168 C.ar    1  UNL1        0.0346
     10 BR        140.5045  145.4506  160.1280 Br      1  UNL1       -0.0490
     11 C         142.0486  143.3616  160.1660 C.ar    1  UNL1        0.0080
     12 C         142.2196  141.8740  160.2548 C.ar    1  UNL1        0.0155
     13 C         141.2249  138.6736  159.2322 C.3     1  UNL1        0.0840
     14 C         139.9655  138.4372  158.4524 C.3     1  UNL1        0.0376
     15 C         140.0020  137.6105  157.2013 C.3     1  UNL1        0.0738
     16 N         141.2979  137.0200  156.7301 N.3     1  UNL1       -0.2738
     17 C         142.5573  137.2563  157.5098 C.3     1  UNL1        0.0738
     18 C         142.5208  138.0831  158.7609 C.3     1  UNL1        0.0376
     19 C         141.3344  136.1933  155.4791 C.3     1  UNL1        0.0575
     20 C         140.4421  136.3610  154.2850 C.3     1  UNL1        0.0160
     21 C         140.8258  135.3250  153.2704 C.3     1  UNL1        0.0014
     22 C         141.9554  134.5170  153.8373 C.3     1  UNL1        0.0014
     23 C         142.2696  135.0536  155.2023 C.3     1  UNL1        0.0160
     24 C         141.4210  139.0054  164.4140 C.3     1  UNL1        0.1177
     25 C         140.2054  138.7759  165.2625 C.ar    1  UNL1       -0.0025
     26 C         139.8785  139.7252  166.3769 C.ar    1  UNL1       -0.0026
     27 C         138.6630  139.4957  167.2253 C.ar    1  UNL1       -0.0003
     28 C         137.7745  138.3168  166.9594 C.ar    1  UNL1       -0.0000
     29 C         138.1014  137.3675  165.8450 C.ar    1  UNL1       -0.0003
     30 C         139.3169  137.5970  164.9966 C.ar    1  UNL1       -0.0026
@<TRIPOS>BOND
     1     1     2    2
     2     2     3   am
     3     3    24    1
     4    24    25    1
     5    25    26   ar
     6    26    27   ar
     7    27    28   ar
     8    28    29   ar
     9    29    30   ar
    10     2     4   am
    11     4     6    1
    12     6     7   ar
    13     7     8   ar
    14     8     9   ar
    15     9    10    1
    16     9    11   ar
    17    11    12   ar
    18     4    13    1
    19    13    14    1
    20    14    15    1
    21    15    16    1
    22    16    19    1
    23    19    20    1
    24    20    21    1
    25    21    22    1
    26    22    23    1
    27    16    17    1
    28    17    18    1
    29    30    25   ar
    30    12     6   ar
    31    18    13    1
    32    23    19    1
    33     3     5    1
@<TRIPOS>MOLECULE
*****
 30 33 0 0 0
SMALL
GASTEIGER

@<TRIPOS>ATOM
      1 O         144.8002  142.6600  159.3925 O.2     1  UNL1       -0.2522
      2 C         144.1802  142.9133  158.0504 C.2     1  UNL1        0.3079
      3 N         144.9892  142.7203  156.8020 N.am    1  UNL1       -0.2844
      4 N         142.7512  143.3594  157.9565 N.am    1  UNL1       -0.2448
      5 H         144.5823  142.8866  155.9211 H       1  UNL1        0.1513
      6 C         142.1312  143.6127  156.6143 C.ar    1  UNL1        0.0552
      7 C         141.4063  142.5090  155.9027 C.ar    1  UNL1        0.0155
      8 C         140.7863  142.7623  154.5605 C.ar    1  UNL1        0.0080
      9 C         140.8911  144.1193  153.9300 C.ar    1  UNL1        0.0346
     10 BR        140.2710  144.3725  152.5878 Br      1  UNL1       -0.0490
     11 C         141.6159  145.2230  154.6416 C.ar    1  UNL1        0.0080
     12 C         142.2359  144.9697  155.9838 C.ar    1  UNL1        0.0155
     13 C         141.9422  143.5523  159.2048 C.3     1  UNL1        0.0840
     14 C         141.5385  144.9327  159.6311 C.3     1  UNL1        0.0376
     15 C         140.7296  145.1256  160.8794 C.3     1  UNL1        0.0738
     16 N         140.3243  143.9382  161.7015 N.3     1  UNL1       -0.2738
     17 C         140.7280  142.5579  161.2753 C.3     1  UNL1        0.0738
     18 C         141.5370  142.3649  160.0269 C.3     1  UNL1        0.0376
     19 C         139.5153  144.1311  162.9498 C.3     1  UNL1        0.0575
     20 C         138.0817  143.7336  163.1417 C.3     1  UNL1        0.0160
     21 C         137.6783  144.1122  164.5360 C.3     1  UNL1        0.0014
     22 C         138.8626  144.7437  165.2058 C.3     1  UNL1        0.0014
     23 C         139.9979  144.7554  164.2256 C.3     1  UNL1        0.0160
     24 C         146.4182  142.2742  156.8959 C.3     1  UNL1        0.1177
     25 C         147.3522  142.5018  155.7443 C.ar    1  UNL1       -0.0025
     26 C         148.6751  141.7961  155.7008 C.ar    1  UNL1       -0.0026
     27 C         149.6090  142.0238  154.5494 C.ar    1  UNL1       -0.0003
     28 C         149.2200  142.9572  153.4414 C.ar    1  UNL1       -0.0000
     29 C         147.8972  143.6629  153.4849 C.ar    1  UNL1       -0.0003
     30 C         146.9632  143.4352  154.6364 C.ar    1  UNL1       -0.0026
@<TRIPOS>BOND
     1     1     2    2
     2     2     3   am
     3     3    24    1
     4    24    25    1
     5    25    26   ar
     6    26    27   ar
     7    27    28   ar
     8    28    29   ar
     9    29    30   ar
    10     2     4   am
    11     4     6    1
    12     6     7   ar
    13     7     8   ar
    14     8     9   ar
    15     9    10    1
    16     9    11   ar
    17    11    12   ar
    18     4    13    1
    19    13    14    1
    20    14    15    1
    21    15    16    1
    22    16    19    1
    23    19    20    1
    24    20    21    1
    25    21    22    1
    26    22    23    1
    27    16    17    1
    28    17    18    1
    29    30    25   ar
    30    12     6   ar
    31    18    13    1
    32    23    19    1
    33     3     5    1
@<TRIPOS>MOLECULE
*****
 30 33 0 0 0
SMALL
GASTEIGER

@<TRIPOS>ATOM
      1 O         144.0897  139.1489  159.2000 O.2     1  UNL1       -0.2522
      2 C         143.2263  140.2269  159.7853 C.2     1  UNL1        0.3079
      3 N         142.2479  139.8963  160.8732 N.am    1  UNL1       -0.2844
      4 N         143.3414  141.6355  159.2827 N.am    1  UNL1       -0.2448
      5 H         141.6812  140.6038  161.2573 H       1  UNL1        0.1513
      6 C         142.4780  142.7135  159.8680 C.ar    1  UNL1        0.0552
      7 C         141.1691  143.0595  159.2222 C.ar    1  UNL1        0.0155
      8 C         140.3058  144.1375  159.8075 C.ar    1  UNL1        0.0080
      9 C         140.7513  144.8695  161.0385 C.ar    1  UNL1        0.0346
     10 BR        139.8880  145.9475  161.6238 Br      1  UNL1       -0.0490
     11 C         142.0602  144.5236  161.6843 C.ar    1  UNL1        0.0080
     12 C         142.9236  143.4456  161.0990 C.ar    1  UNL1        0.0155
     13 C         144.3198  141.9661  158.1949 C.3     1  UNL1        0.0840
     14 C         143.9314  141.7874  156.7571 C.3     1  UNL1        0.0376
     15 C         144.9098  142.1180  155.6693 C.3     1  UNL1        0.0738
     16 N         146.2766  142.6273  156.0192 N.3     1  UNL1       -0.2738
     17 C         146.6650  142.8060  157.4569 C.3     1  UNL1        0.0738
     18 C         145.6866  142.4754  158.5448 C.3     1  UNL1        0.0376
     19 C         147.2550  142.9579  154.9314 C.3     1  UNL1        0.0575
     20 C         147.2210  144.1746  154.0548 C.3     1  UNL1        0.0160
     21 C         148.3843  144.0985  153.1107 C.3     1  UNL1        0.0014
     22 C         149.1372  142.8347  153.4039 C.3     1  UNL1        0.0014
     23 C         148.4393  142.1298  154.5291 C.3     1  UNL1        0.0160
     24 C         142.1328  138.4877  161.3757 C.3     1  UNL1        0.1177
     25 C         141.1315  138.1507  162.4406 C.ar    1  UNL1       -0.0025
     26 C         141.5762  137.9884  163.8639 C.ar    1  UNL1       -0.0026
     27 C         140.5749  137.6514  164.9286 C.ar    1  UNL1       -0.0003
     28 C         139.1289  137.4767  164.5701 C.ar    1  UNL1       -0.0000
     29 C         138.6842  137.6390  163.1468 C.ar    1  UNL1       -0.0003
     30 C         139.6855  137.9760  162.0820 C.ar    1  UNL1       -0.0026
@<TRIPOS>BOND
     1     1     2    2
     2     2     3   am
     3     3    24    1
     4    24    25    1
     5    25    26   ar
     6    26    27   ar
     7    27    28   ar
     8    28    29   ar
     9    29    30   ar
    10     2     4   am
    11     4     6    1
    12     6     7   ar
    13     7     8   ar
    14     8     9   ar
    15     9    10    1
    16     9    11   ar
    17    11    12   ar
    18     4    13    1
    19    13    14    1
    20    14    15    1
    21    15    16    1
    22    16    19    1
    23    19    20    1
    24    20    21    1
    25    21    22    1
    26    22    23    1
    27    16    17    1
    28    17    18    1
    29    30    25   ar
    30    12     6   ar
    31    18    13    1
    32    23    19    1
    33     3     5    1
@<TRIPOS>MOLECULE
*****
 30 33 0 0 0
SMALL
GASTEIGER

@<TRIPOS>ATOM
      1 O         137.8825  143.1132  160.5523 O.2     1  UNL1       -0.2522
      2 C         138.6579  141.8909  160.1587 C.2     1  UNL1        0.3079
      3 N         138.6035  140.6603  161.0148 N.am    1  UNL1       -0.2844
      4 N         139.4877  141.8992  158.9092 N.am    1  UNL1       -0.2448
      5 H         139.1124  139.8581  160.7565 H       1  UNL1        0.1513
      6 C         140.2631  140.6770  158.5157 C.ar    1  UNL1        0.0552
      7 C         139.6004  139.5927  157.7188 C.ar    1  UNL1        0.0155
      8 C         140.3758  138.3705  157.3252 C.ar    1  UNL1        0.0080
      9 C         141.8139  138.2325  157.7286 C.ar    1  UNL1        0.0346
     10 BR        142.5893  137.0102  157.3351 Br      1  UNL1       -0.0490
     11 C         142.4766  139.3167  158.5255 C.ar    1  UNL1        0.0080
     12 C         141.7012  140.5390  158.9191 C.ar    1  UNL1        0.0155
     13 C         139.5421  143.1298  158.0533 C.3     1  UNL1        0.0840
     14 C         138.7469  143.1957  156.7831 C.3     1  UNL1        0.0376
     15 C         138.8013  144.4262  155.9271 C.3     1  UNL1        0.0738
     16 N         139.6510  145.5909  156.3413 N.3     1  UNL1       -0.2738
     17 C         140.4462  145.5251  157.6114 C.3     1  UNL1        0.0738
     18 C         140.3918  144.2945  158.4674 C.3     1  UNL1        0.0376
     19 C         139.7054  146.8215  155.4853 C.3     1  UNL1        0.0575
     20 C         140.4669  146.9696  154.2015 C.3     1  UNL1        0.0160
     21 C         140.2400  148.3597  153.6856 C.3     1  UNL1        0.0014
     22 C         139.3382  149.0708  154.6506 C.3     1  UNL1        0.0014
     23 C         139.0078  148.1202  155.7629 C.3     1  UNL1        0.0160
     24 C         137.7736  140.6520  162.2643 C.3     1  UNL1        0.1177
     25 C         138.1873  139.8086  163.4338 C.ar    1  UNL1       -0.0025
     26 C         138.6559  138.4007  163.2147 C.ar    1  UNL1       -0.0026
     27 C         139.0695  137.5574  164.3842 C.ar    1  UNL1       -0.0003
     28 C         139.0147  138.1221  165.7727 C.ar    1  UNL1       -0.0000
     29 C         138.5462  139.5301  165.9918 C.ar    1  UNL1       -0.0003
     30 C         138.1325  140.3734  164.8223 C.ar    1  UNL1       -0.0026
@<TRIPOS>BOND
     1     1     2    2
     2     2     3   am
     3     3    24    1
     4    24    25    1
     5    25    26   ar
     6    26    27   ar
     7    27    28   ar
     8    28    29   ar
     9    29    30   ar
    10     2     4   am
    11     4     6    1
    12     6     7   ar
    13     7     8   ar
    14     8     9   ar
    15     9    10    1
    16     9    11   ar
    17    11    12   ar
    18     4    13    1
    19    13    14    1
    20    14    15    1
    21    15    16    1
    22    16    19    1
    23    19    20    1
    24    20    21    1
    25    21    22    1
    26    22    23    1
    27    16    17    1
    28    17    18    1
    29    30    25   ar
    30    12     6   ar
    31    18    13    1
    32    23    19    1
    33     3     5    1
@<TRIPOS>MOLECULE
*****
 30 33 0 0 0
SMALL
GASTEIGER

@<TRIPOS>ATOM
      1 O         142.1671  141.2955  158.1666 O.2     1  UNL1       -0.2522
      2 C         142.2127  140.0213  157.3764 C.2     1  UNL1        0.3079
      3 N         142.8105  140.0130  156.0006 N.am    1  UNL1       -0.2844
      4 N         141.6606  138.7555  157.9619 N.am    1  UNL1       -0.2448
      5 H         142.8405  139.1767  155.4820 H       1  UNL1        0.1513
      6 C         141.7062  137.4814  157.1717 C.ar    1  UNL1        0.0552
      7 C         140.6176  137.1695  156.1880 C.ar    1  UNL1        0.0155
      8 C         140.6633  135.8953  155.3978 C.ar    1  UNL1        0.0080
      9 C         141.7975  134.9330  155.5913 C.ar    1  UNL1        0.0346
     10 BR        141.8432  133.6588  154.8011 Br      1  UNL1       -0.0490
     11 C         142.8861  135.2449  156.5750 C.ar    1  UNL1        0.0080
     12 C         142.8405  136.5191  157.3652 C.ar    1  UNL1        0.0155
     13 C         141.0628  138.7639  159.3376 C.3     1  UNL1        0.0840
     14 C         139.6207  139.1311  159.5265 C.3     1  UNL1        0.0376
     15 C         139.0230  139.1394  160.9022 C.3     1  UNL1        0.0738
     16 N         139.8673  138.7806  162.0890 N.3     1  UNL1       -0.2738
     17 C         141.3093  138.4135  161.9001 C.3     1  UNL1        0.0738
     18 C         141.9071  138.4051  160.5244 C.3     1  UNL1        0.0376
     19 C         139.2695  138.7890  163.4647 C.3     1  UNL1        0.0575
     20 C         138.6093  139.9589  164.1321 C.3     1  UNL1        0.0160
     21 C         138.1587  139.5219  165.4945 C.3     1  UNL1        0.0014
     22 C         138.5405  138.0818  165.6691 C.3     1  UNL1        0.0014
     23 C         139.2270  137.6289  164.4147 C.3     1  UNL1        0.0160
     24 C         143.3626  141.2788  155.4151 C.3     1  UNL1        0.1177
     25 C         144.8306  141.5720  155.5117 C.ar    1  UNL1       -0.0025
     26 C         145.4014  142.1336  156.7800 C.ar    1  UNL1       -0.0026
     27 C         146.8693  142.4267  156.8765 C.ar    1  UNL1       -0.0003
     28 C         147.7663  142.1582  155.7047 C.ar    1  UNL1       -0.0000
     29 C         147.1955  141.5966  154.4364 C.ar    1  UNL1       -0.0003
     30 C         145.7276  141.3035  154.3399 C.ar    1  UNL1       -0.0026
@<TRIPOS>BOND
     1     1     2    2
     2     2     3   am
     3     3    24    1
     4    24    25    1
     5    25    26   ar
     6    26    27   ar
     7    27    28   ar
     8    28    29   ar
     9    29    30   ar
    10     2     4   am
    11     4     6    1
    12     6     7   ar
    13     7     8   ar
    14     8     9   ar
    15     9    10    1
    16     9    11   ar
    17    11    12   ar
    18     4    13    1
    19    13    14    1
    20    14    15    1
    21    15    16    1
    22    16    19    1
    23    19    20    1
    24    20    21    1
    25    21    22    1
    26    22    23    1
    27    16    17    1
    28    17    18    1
    29    30    25   ar
    30    12     6   ar
    31    18    13    1
    32    23    19    1
    33     3     5    1
