@<TRIPOS>MOLECULE
*****
 23 26 0 0 0
SMALL
GASTEIGER

@<TRIPOS>ATOM
      1 N         142.3012  142.9120  164.9261 N.pl3   1  UNL1       -0.3133
      2 C         141.3007  141.8026  165.0611 C.2     1  UNL1        0.2770
      3 N         140.6235  141.3757  166.3296 N.2     1  UNL1       -0.2203
      4 C         139.7060  140.2345  166.0039 C.3     1  UNL1        0.1541
      5 C         139.8162  139.9562  164.5340 C.3     1  UNL1        0.2350
      6 O         140.8018  140.9253  163.9514 O.2     1  UNL1       -0.4478
      7 C         139.7010  140.6273  167.4515 C.ar    1  UNL1        0.0360
      8 C         140.5701  141.7540  167.9260 C.ar    1  UNL1        0.0073
      9 C         140.5651  142.1468  169.3736 C.ar    1  UNL1        0.0345
     10 BR        141.4343  143.2735  169.8481 Br      1  UNL1       -0.0490
     11 C         139.6909  141.4129  170.3468 C.ar    1  UNL1        0.0098
     12 C         138.8218  140.2862  169.8723 C.ar    1  UNL1        0.0371
     13 C         138.8268  139.8934  168.4248 C.ar    1  UNL1        0.1364
     14 O         137.9577  138.7667  167.9503 O.3     1  UNL1       -0.4756
     15 C         137.9627  138.3740  166.5026 C.3     1  UNL1        0.2078
     16 C         138.8369  139.1079  165.5294 C.3     1  UNL1        0.0771
     17 C         138.8354  139.2174  165.9333 C.3     1  UNL1        0.0726
     18 C         138.8369  139.1023  165.5088 C.3     1  UNL1        0.2643
     19 F         139.5592  139.0342  162.2549 F       1  UNL1       -0.2043
     20 F         138.1358  137.5150  162.6621 F       1  UNL1       -0.2043
     21 C         138.8354  139.2174  165.9333 C.3     1  UNL1        0.0726
     22 H         142.5669  143.4343  165.7172 H       1  UNL1        0.1466
     23 H         142.6922  143.1179  164.0463 H       1  UNL1        0.1466
@<TRIPOS>BOND
     1     1     2    1
     2     2     3    2
     3     3     4    1
     4     4     5    1
     5     5     6    1
     6     4     7    1
     7     7     8   ar
     8     8     9   ar
     9     9    10    1
    10     9    11   ar
    11    11    12   ar
    12    12    13   ar
    13    13    14    1
    14    14    15    1
    15    15    16    1
    16    16    17    1
    17    17    18    1
    18    18    19    1
    19    18    20    1
    20    18    21    1
    21     6     2    1
    22    13     7   ar
    23    21    16    1
    24    16     4    1
    25     1    22    1
    26     1    23    1
@<TRIPOS>MOLECULE
*****
 23 26 0 0 0
SMALL
GASTEIGER

@<TRIPOS>ATOM
      1 N         139.0897  138.2597  163.3581 N.pl3   1  UNL1       -0.3133
      2 C         139.0943  138.7174  164.7865 C.2     1  UNL1        0.2770
      3 N         140.1026  139.6322  165.4160 N.2     1  UNL1       -0.2203
      4 C         139.7229  139.8208  166.8549 C.3     1  UNL1        0.1541
      5 C         138.4798  139.0225  167.1146 C.3     1  UNL1        0.2350
      6 O         138.0913  138.3406  165.8363 O.2     1  UNL1       -0.4478
      7 C         140.9587  140.5669  166.4472 C.ar    1  UNL1        0.0360
      8 C         141.4601  140.4735  165.0366 C.ar    1  UNL1        0.0073
      9 C         142.6959  141.2196  164.6289 C.ar    1  UNL1        0.0345
     10 BR        143.1973  141.1262  163.2183 Br      1  UNL1       -0.0490
     11 C         143.4302  142.0590  165.6319 C.ar    1  UNL1        0.0098
     12 C         142.9288  142.1524  167.0425 C.ar    1  UNL1        0.0371
     13 C         141.6931  141.4064  167.4501 C.ar    1  UNL1        0.1364
     14 O         141.1917  141.4998  168.8607 O.3     1  UNL1       -0.4756
     15 C         139.9559  140.7537  169.2684 C.3     1  UNL1        0.2078
     16 C         139.2215  139.9142  168.2655 C.3     1  UNL1        0.0771
     17 C         139.5663  140.1224  168.1518 C.3     1  UNL1        0.0726
     18 C         139.2039  139.9036  168.2712 C.3     1  UNL1        0.2643
     19 F         136.5049  137.9507  168.1450 F       1  UNL1       -0.2043
     20 F         136.6951  138.7124  170.1156 F       1  UNL1       -0.2043
     21 C         139.5663  140.1224  168.1518 C.3     1  UNL1        0.0726
     22 H         139.7948  138.5633  162.7416 H       1  UNL1        0.1466
     23 H         138.3816  137.6558  163.0370 H       1  UNL1        0.1466
@<TRIPOS>BOND
     1     1     2    1
     2     2     3    2
     3     3     4    1
     4     4     5    1
     5     5     6    1
     6     4     7    1
     7     7     8   ar
     8     8     9   ar
     9     9    10    1
    10     9    11   ar
    11    11    12   ar
    12    12    13   ar
    13    13    14    1
    14    14    15    1
    15    15    16    1
    16    16    17    1
    17    17    18    1
    18    18    19    1
    19    18    20    1
    20    18    21    1
    21     6     2    1
    22    13     7   ar
    23    21    16    1
    24    16     4    1
    25     1    22    1
    26     1    23    1
@<TRIPOS>MOLECULE
*****
 23 26 0 0 0
SMALL
GASTEIGER

@<TRIPOS>ATOM
      1 N         137.8446  140.4728  165.1005 N.pl3   1  UNL1       -0.3133
      2 C         139.2405  139.9246  165.0680 C.2     1  UNL1        0.2770
      3 N         140.1436  139.7414  166.2515 N.2     1  UNL1       -0.2203
      4 C         141.4396  139.1670  165.7611 C.3     1  UNL1        0.1541
      5 C         141.3375  138.9953  164.2745 C.3     1  UNL1        0.2350
      6 O         139.9783  139.4635  163.8461 O.2     1  UNL1       -0.4478
      7 C         141.3953  139.3950  167.2430 C.ar    1  UNL1        0.0360
      8 C         140.1616  139.9656  167.8775 C.ar    1  UNL1        0.0073
      9 C         140.1173  140.1937  169.3594 C.ar    1  UNL1        0.0345
     10 BR        138.8836  140.7643  169.9938 Br      1  UNL1       -0.0490
     11 C         141.3066  139.8512  170.2068 C.ar    1  UNL1        0.0098
     12 C         142.5402  139.2806  169.5723 C.ar    1  UNL1        0.0371
     13 C         142.5846  139.0525  168.0905 C.ar    1  UNL1        0.1364
     14 O         143.8182  138.4820  167.4561 O.3     1  UNL1       -0.4756
     15 C         143.8625  138.2539  165.9742 C.3     1  UNL1        0.2078
     16 C         142.6732  138.5964  165.1267 C.3     1  UNL1        0.0771
     17 C         142.6609  138.6600  165.5401 C.3     1  UNL1        0.0726
     18 C         142.6738  138.5932  165.1056 C.3     1  UNL1        0.2643
     19 F         141.7781  138.4854  161.8962 F       1  UNL1       -0.2043
     20 F         143.7565  137.7398  162.0701 F       1  UNL1       -0.2043
     21 C         142.6609  138.6600  165.5401 C.3     1  UNL1        0.0726
     22 H         137.4445  140.7503  165.9562 H       1  UNL1        0.1466
     23 H         137.3284  140.5551  164.2662 H       1  UNL1        0.1466
@<TRIPOS>BOND
     1     1     2    1
     2     2     3    2
     3     3     4    1
     4     4     5    1
     5     5     6    1
     6     4     7    1
     7     7     8   ar
     8     8     9   ar
     9     9    10    1
    10     9    11   ar
    11    11    12   ar
    12    12    13   ar
    13    13    14    1
    14    14    15    1
    15    15    16    1
    16    16    17    1
    17    17    18    1
    18    18    19    1
    19    18    20    1
    20    18    21    1
    21     6     2    1
    22    13     7   ar
    23    21    16    1
    24    16     4    1
    25     1    22    1
    26     1    23    1
@<TRIPOS>MOLECULE
*****
 23 26 0 0 0
SMALL
GASTEIGER

@<TRIPOS>ATOM
      1 N         143.1343  142.2911  165.8537 N.pl3   1  UNL1       -0.3133
      2 C         141.9217  141.5306  166.3022 C.2     1  UNL1        0.2770
      3 N         141.2112  140.4645  165.5220 N.2     1  UNL1       -0.2203
      4 C         140.0571  139.9776  166.3472 C.3     1  UNL1        0.1541
      5 C         140.0542  140.7428  167.6373 C.3     1  UNL1        0.2350
      6 O         141.2066  141.7026  167.6095 O.2     1  UNL1       -0.4478
      7 C         140.1866  139.2960  165.0172 C.ar    1  UNL1        0.0360
      8 C         141.2956  139.6796  164.0828 C.ar    1  UNL1        0.0073
      9 C         141.4251  138.9980  162.7529 C.ar    1  UNL1        0.0345
     10 BR        142.5341  139.3816  161.8185 Br      1  UNL1       -0.0490
     11 C         140.4458  137.9330  162.3574 C.ar    1  UNL1        0.0098
     12 C         139.3369  137.5494  163.2919 C.ar    1  UNL1        0.0371
     13 C         139.2073  138.2309  164.6217 C.ar    1  UNL1        0.1364
     14 O         138.0984  137.8474  165.5561 O.3     1  UNL1       -0.4756
     15 C         137.9688  138.5289  166.8861 C.3     1  UNL1        0.2078
     16 C         138.9481  139.5940  167.2816 C.3     1  UNL1        0.0771
     17 C         138.9842  139.4039  166.9106 C.3     1  UNL1        0.0726
     18 C         138.9463  139.6037  167.3005 C.3     1  UNL1        0.2643
     19 F         139.5258  141.6312  169.8828 F       1  UNL1       -0.2043
     20 F         137.8207  140.4484  170.3229 F       1  UNL1       -0.2043
     21 C         138.9842  139.4039  166.9106 C.3     1  UNL1        0.0726
     22 H         143.5339  142.1058  164.9732 H       1  UNL1        0.1466
     23 H         143.5306  142.9757  166.4398 H       1  UNL1        0.1466
@<TRIPOS>BOND
     1     1     2    1
     2     2     3    2
     3     3     4    1
     4     4     5    1
     5     5     6    1
     6     4     7    1
     7     7     8   ar
     8     8     9   ar
     9     9    10    1
    10     9    11   ar
    11    11    12   ar
    12    12    13   ar
    13    13    14    1
    14    14    15    1
    15    15    16    1
    16    16    17    1
    17    17    18    1
    18    18    19    1
    19    18    20    1
    20    18    21    1
    21     6     2    1
    22    13     7   ar
    23    21    16    1
    24    16     4    1
    25     1    22    1
    26     1    23    1
@<TRIPOS>MOLECULE
*****
 23 26 0 0 0
SMALL
GASTEIGER

@<TRIPOS>ATOM
      1 N         142.4847  137.5705  162.3028 N.pl3   1  UNL1       -0.3133
      2 C         141.7401  138.1059  163.4898 C.2     1  UNL1        0.2770
      3 N         142.1060  139.3247  164.2839 N.2     1  UNL1       -0.2203
      4 C         141.0908  139.4885  165.3760 C.3     1  UNL1        0.1541
      5 C         140.0975  138.3709  165.2569 C.3     1  UNL1        0.2350
      6 O         140.4988  137.5164  164.0912 O.2     1  UNL1       -0.4478
      7 C         142.1566  140.5441  165.3703 C.ar    1  UNL1        0.0360
      8 C         143.2409  140.5096  164.3344 C.ar    1  UNL1        0.0073
      9 C         144.3066  141.5651  164.3288 C.ar    1  UNL1        0.0345
     10 BR        145.3909  141.5307  163.2929 Br      1  UNL1       -0.0490
     11 C         144.2880  142.6551  165.3590 C.ar    1  UNL1        0.0098
     12 C         143.2038  142.6896  166.3949 C.ar    1  UNL1        0.0371
     13 C         142.1381  141.6341  166.4006 C.ar    1  UNL1        0.1364
     14 O         141.0538  141.6686  167.4365 O.3     1  UNL1       -0.4756
     15 C         139.9880  140.6131  167.4421 C.3     1  UNL1        0.2078
     16 C         140.0066  139.5230  166.4119 C.3     1  UNL1        0.0771
     17 C         140.3039  139.8175  166.4103 C.3     1  UNL1        0.0726
     18 C         139.9914  139.5080  166.4119 C.3     1  UNL1        0.2643
     19 F         138.1960  136.8248  165.5803 F       1  UNL1       -0.2043
     20 F         137.2955  137.7430  167.2674 F       1  UNL1       -0.2043
     21 C         140.3039  139.8175  166.4103 C.3     1  UNL1        0.0726
     22 H         143.2937  138.0301  161.9810 H       1  UNL1        0.1466
     23 H         142.1645  136.7596  161.8456 H       1  UNL1        0.1466
@<TRIPOS>BOND
     1     1     2    1
     2     2     3    2
     3     3     4    1
     4     4     5    1
     5     5     6    1
     6     4     7    1
     7     7     8   ar
     8     8     9   ar
     9     9    10    1
    10     9    11   ar
    11    11    12   ar
    12    12    13   ar
    13    13    14    1
    14    14    15    1
    15    15    16    1
    16    16    17    1
    17    17    18    1
    18    18    19    1
    19    18    20    1
    20    18    21    1
    21     6     2    1
    22    13     7   ar
    23    21    16    1
    24    16     4    1
    25     1    22    1
    26     1    23    1
@<TRIPOS>MOLECULE
*****
 23 26 0 0 0
SMALL
GASTEIGER

@<TRIPOS>ATOM
      1 N         139.9798  139.5567  171.2286 N.pl3   1  UNL1       -0.3133
      2 C         140.8701  140.2872  170.2676 C.2     1  UNL1        0.2770
      3 N         140.6974  140.3496  168.7789 N.2     1  UNL1       -0.2203
      4 C         141.8100  141.1846  168.2176 C.3     1  UNL1        0.1541
      5 C         142.6704  141.6382  169.3595 C.3     1  UNL1        0.2350
      6 O         142.0896  141.0836  170.6264 O.2     1  UNL1       -0.4478
      7 C         140.8612  140.6571  167.1825 C.ar    1  UNL1        0.0360
      8 C         139.6979  139.8052  167.5960 C.ar    1  UNL1        0.0073
      9 C         138.7491  139.2777  166.5608 C.ar    1  UNL1        0.0345
     10 BR        137.5858  138.4259  166.9744 Br      1  UNL1       -0.0490
     11 C         138.9637  139.6021  165.1122 C.ar    1  UNL1        0.0098
     12 C         140.1270  140.4540  164.6987 C.ar    1  UNL1        0.0371
     13 C         141.0757  140.9814  165.7338 C.ar    1  UNL1        0.1364
     14 O         142.2390  141.8333  165.3202 O.3     1  UNL1       -0.4756
     15 C         143.1878  142.3608  166.3554 C.3     1  UNL1        0.2078
     16 C         142.9733  142.0364  167.8041 C.3     1  UNL1        0.0771
     17 C         142.7086  141.8893  167.5153 C.3     1  UNL1        0.0726
     18 C         142.9868  142.0439  167.8188 C.3     1  UNL1        0.2643
     19 F         144.4235  142.6752  170.7602 F       1  UNL1       -0.2043
     20 F         145.5485  143.6356  169.2397 F       1  UNL1       -0.2043
     21 C         142.7086  141.8893  167.5153 C.3     1  UNL1        0.0726
     22 H         139.1986  139.0591  170.8950 H       1  UNL1        0.1466
     23 H         140.1767  139.5748  172.1931 H       1  UNL1        0.1466
@<TRIPOS>BOND
     1     1     2    1
     2     2     3    2
     3     3     4    1
     4     4     5    1
     5     5     6    1
     6     4     7    1
     7     7     8   ar
     8     8     9   ar
     9     9    10    1
    10     9    11   ar
    11    11    12   ar
    12    12    13   ar
    13    13    14    1
    14    14    15    1
    15    15    16    1
    16    16    17    1
    17    17    18    1
    18    18    19    1
    19    18    20    1
    20    18    21    1
    21     6     2    1
    22    13     7   ar
    23    21    16    1
    24    16     4    1
    25     1    22    1
    26     1    23    1
@<TRIPOS>MOLECULE
*****
 23 26 0 0 0
SMALL
GASTEIGER

@<TRIPOS>ATOM
      1 N         144.4390  139.3657  162.9810 N.pl3   1  UNL1       -0.3133
      2 C         143.9445  139.3251  164.3966 C.2     1  UNL1        0.2770
      3 N         142.9810  140.2897  165.0219 N.2     1  UNL1       -0.2203
      4 C         142.7677  139.8736  166.4472 C.3     1  UNL1        0.1541
      5 C         143.5994  138.6517  166.7027 C.3     1  UNL1        0.2350
      6 O         144.3267  138.3128  165.4354 O.2     1  UNL1       -0.4478
      7 C         141.9922  141.0930  166.0451 C.ar    1  UNL1        0.0360
      8 C         142.1056  141.6271  164.6480 C.ar    1  UNL1        0.0073
      9 C         141.3302  142.8465  164.2459 C.ar    1  UNL1        0.0345
     10 BR        141.4436  143.3805  162.8488 Br      1  UNL1       -0.0490
     11 C         140.4413  143.5318  165.2409 C.ar    1  UNL1        0.0098
     12 C         140.3278  142.9978  166.6380 C.ar    1  UNL1        0.0371
     13 C         141.1032  141.7784  167.0401 C.ar    1  UNL1        0.1364
     14 O         140.9898  141.2444  168.4372 O.3     1  UNL1       -0.4756
     15 C         141.7652  140.0250  168.8393 C.3     1  UNL1        0.2078
     16 C         142.6542  139.3396  167.8443 C.3     1  UNL1        0.0771
     17 C         142.4378  139.6798  167.7321 C.3     1  UNL1        0.0726
     18 C         142.6652  139.3222  167.8500 C.3     1  UNL1        0.2643
     19 F         144.7084  136.6910  167.7207 F       1  UNL1       -0.2043
     20 F         143.8900  136.8146  169.6739 F       1  UNL1       -0.2043
     21 C         142.4378  139.6798  167.7321 C.3     1  UNL1        0.0726
     22 H         144.1285  140.0735  162.3712 H       1  UNL1        0.1466
     23 H         145.0740  138.6845  162.6617 H       1  UNL1        0.1466
@<TRIPOS>BOND
     1     1     2    1
     2     2     3    2
     3     3     4    1
     4     4     5    1
     5     5     6    1
     6     4     7    1
     7     7     8   ar
     8     8     9   ar
     9     9    10    1
    10     9    11   ar
    11    11    12   ar
    12    12    13   ar
    13    13    14    1
    14    14    15    1
    15    15    16    1
    16    16    17    1
    17    17    18    1
    18    18    19    1
    19    18    20    1
    20    18    21    1
    21     6     2    1
    22    13     7   ar
    23    21    16    1
    24    16     4    1
    25     1    22    1
    26     1    23    1
@<TRIPOS>MOLECULE
*****
 23 26 0 0 0
SMALL
GASTEIGER

@<TRIPOS>ATOM
      1 N         138.8556  137.4551  162.4792 N.pl3   1  UNL1       -0.3133
      2 C         139.3088  138.1097  163.7506 C.2     1  UNL1        0.2770
      3 N         140.6635  138.7019  164.0031 N.2     1  UNL1       -0.2203
      4 C         140.6788  139.2452  165.4012 C.3     1  UNL1        0.1541
      5 C         139.3334  138.9886  166.0128 C.3     1  UNL1        0.2350
      6 O         138.4867  138.2869  164.9926 O.2     1  UNL1       -0.4478
      7 C         141.9695  139.4319  164.6600 C.ar    1  UNL1        0.0360
      8 C         142.1027  138.9382  163.2499 C.ar    1  UNL1        0.0073
      9 C         143.3934  139.1249  162.5087 C.ar    1  UNL1        0.0345
     10 BR        143.5267  138.6313  161.0985 Br      1  UNL1       -0.0490
     11 C         144.5508  139.8052  163.1777 C.ar    1  UNL1        0.0098
     12 C         144.4175  140.2988  164.5879 C.ar    1  UNL1        0.0371
     13 C         143.1269  140.1122  165.3290 C.ar    1  UNL1        0.1364
     14 O         142.9936  140.6058  166.7392 O.3     1  UNL1       -0.4756
     15 C         141.7029  140.4191  167.4803 C.3     1  UNL1        0.2078
     16 C         140.5455  139.7388  166.8113 C.3     1  UNL1        0.0771
     17 C         140.9056  139.7909  166.6046 C.3     1  UNL1        0.0726
     18 C         140.5271  139.7361  166.8218 C.3     1  UNL1        0.2643
     19 F         137.3895  138.8635  167.5347 F       1  UNL1       -0.2043
     20 F         138.2256  139.8220  169.2324 F       1  UNL1       -0.2043
     21 C         140.9056  139.7909  166.6046 C.3     1  UNL1        0.0726
     22 H         139.4717  137.3861  161.7144 H       1  UNL1        0.1466
     23 H         137.9422  137.0945  162.4097 H       1  UNL1        0.1466
@<TRIPOS>BOND
     1     1     2    1
     2     2     3    2
     3     3     4    1
     4     4     5    1
     5     5     6    1
     6     4     7    1
     7     7     8   ar
     8     8     9   ar
     9     9    10    1
    10     9    11   ar
    11    11    12   ar
    12    12    13   ar
    13    13    14    1
    14    14    15    1
    15    15    16    1
    16    16    17    1
    17    17    18    1
    18    18    19    1
    19    18    20    1
    20    18    21    1
    21     6     2    1
    22    13     7   ar
    23    21    16    1
    24    16     4    1
    25     1    22    1
    26     1    23    1
@<TRIPOS>MOLECULE
*****
 23 26 0 0 0
SMALL
GASTEIGER

@<TRIPOS>ATOM
      1 N         143.9401  141.2693  164.5581 N.pl3   1  UNL1       -0.3133
      2 C         142.9763  141.1756  165.7037 C.2     1  UNL1        0.2770
      3 N         141.7374  140.3310  165.7468 N.2     1  UNL1       -0.2203
      4 C         141.0776  140.5435  167.0771 C.3     1  UNL1        0.1541
      5 C         141.9088  141.5193  167.8561 C.3     1  UNL1        0.2350
      6 O         143.0822  141.9100  167.0073 O.2     1  UNL1       -0.4478
      7 C         140.3518  139.5827  166.1826 C.ar    1  UNL1        0.0360
      8 C         140.8942  139.2714  164.8192 C.ar    1  UNL1        0.0073
      9 C         140.1684  138.3106  163.9246 C.ar    1  UNL1        0.0345
     10 BR        140.7108  137.9993  162.5612 Br      1  UNL1       -0.0490
     11 C         138.9002  137.6613  164.3935 C.ar    1  UNL1        0.0098
     12 C         138.3578  137.9726  165.7569 C.ar    1  UNL1        0.0371
     13 C         139.0836  138.9333  166.6514 C.ar    1  UNL1        0.1364
     14 O         138.5412  139.2446  168.0148 O.3     1  UNL1       -0.4756
     15 C         139.2670  140.2053  168.9093 C.3     1  UNL1        0.2078
     16 C         140.5352  140.8548  168.4405 C.3     1  UNL1        0.0771
     17 C         140.3327  140.5867  168.1909 C.3     1  UNL1        0.0726
     18 C         140.5456  140.8684  168.4532 C.3     1  UNL1        0.2643
     19 F         142.8141  143.0308  169.5900 F       1  UNL1       -0.2043
     20 F         141.3357  142.7548  171.0861 F       1  UNL1       -0.2043
     21 C         140.3327  140.5867  168.1909 C.3     1  UNL1        0.0726
     22 H         143.7840  140.7454  163.7394 H       1  UNL1        0.1466
     23 H         144.7288  141.8548  164.6250 H       1  UNL1        0.1466
@<TRIPOS>BOND
     1     1     2    1
     2     2     3    2
     3     3     4    1
     4     4     5    1
     5     5     6    1
     6     4     7    1
     7     7     8   ar
     8     8     9   ar
     9     9    10    1
    10     9    11   ar
    11    11    12   ar
    12    12    13   ar
    13    13    14    1
    14    14    15    1
    15    15    16    1
    16    16    17    1
    17    17    18    1
    18    18    19    1
    19    18    20    1
    20    18    21    1
    21     6     2    1
    22    13     7   ar
    23    21    16    1
    24    16     4    1
    25     1    22    1
    26     1    23    1
