@<TRIPOS>MOLECULE
*****
 32 35 0 0 0
SMALL
GASTEIGER

@<TRIPOS>ATOM
      1 N         142.6463  138.0408  162.6022 N.3     1  UNL1       -0.2863
      2 H         143.2042  138.5671  161.9298 H       1  UNL1        0.1240
      3 C         142.5903  138.8626  163.8558 C.3     1  UNL1        0.1341
      4 C         142.9967  138.4087  165.2265 C.3     1  UNL1        0.0471
      5 C         142.7756  139.5482  166.1766 C.3     1  UNL1        0.1031
      6 N         142.2326  140.7062  165.3931 N.am    1  UNL1       -0.2252
      7 C         141.8681  142.0518  165.9467 C.2     1  UNL1        0.2563
      8 O         141.3339  143.1177  165.0365 O.2     1  UNL1       -0.2694
      9 C         142.1180  140.2825  163.9588 C.2     1  UNL1        0.2459
     10 O         141.6189  141.1300  162.8262 O.2     1  UNL1       -0.2730
     11 C         142.0378  142.3316  167.4107 C.ar    1  UNL1        0.0736
     12 C         143.4112  142.3716  168.0122 C.ar    1  UNL1        0.1034
     13 N         143.5810  142.6513  169.4761 N.ar    1  UNL1       -0.2417
     14 C         142.3772  142.8910  170.3383 C.ar    1  UNL1        0.1055
     15 C         141.0037  142.8510  169.7367 C.ar    1  UNL1        0.0539
     16 BR        139.8000  143.0907  170.5990 Br      1  UNL1       -0.0474
     17 C         140.8340  142.5713  168.2729 C.ar    1  UNL1        0.0143
     18 C         141.3775  137.6526  161.9024 C.3     1  UNL1        0.1151
     19 N         139.4010  138.9745  160.6814 N.ar    1  UNL1       -0.3070
     20 C         139.2961  139.8255  159.4506 C.ar    1  UNL1        0.1786
     21 N         140.6557  139.9000  158.8212 N.ar    1  UNL1       -0.2226
     22 C         141.6009  139.0951  159.6632 C.ar    1  UNL1        0.1147
     23 C         140.8255  138.5231  160.8128 C.ar    1  UNL1        0.0739
     24 C         138.2786  138.6347  161.6166 C.3     1  UNL1        0.1340
     25 C         138.7572  139.2995  166.0414 C.ar    1  UNL1        0.0684
     26 C         138.4202  140.4516  165.1420 C.ar    1  UNL1        0.0100
     27 C         138.2607  140.2300  163.6671 C.ar    1  UNL1       -0.0017
     28 C         138.4381  138.8563  163.0915 C.ar    1  UNL1        0.0005
     29 C         138.7751  137.7041  163.9909 C.ar    1  UNL1       -0.0017
     30 C         138.9346  137.9257  165.4659 C.ar    1  UNL1        0.0100
     31 N         139.0762  139.7426  168.9913 N.1     1  UNL1       -0.1908
     32 C         138.9167  139.5210  167.5163 C.1     1  UNL1        0.1004
@<TRIPOS>BOND
     1    31    32    3
     2    32    25    1
     3    25    26   ar
     4    26    27   ar
     5    27    28   ar
     6    28    24    1
     7    24    19    1
     8    19    20   ar
     9    20    21   ar
    10    21    22   ar
    11    22    23   ar
    12    23    18    1
    13    18     1    1
    14     3     1    1
    15     3     4    1
    16     4     5    1
    17     5     6    1
    18     6     7   am
    19     7     8    2
    20     7    11    1
    21    11    12   ar
    22    12    13   ar
    23    13    14   ar
    24    14    15   ar
    25    15    16    1
    26    15    17   ar
    27     6     9   am
    28     9    10    2
    29    28    29   ar
    30    29    30   ar
    31    30    25   ar
    32    23    19   ar
    33     9     3    1
    34    17    11   ar
    35     1     2    1
@<TRIPOS>MOLECULE
*****
 32 35 0 0 0
SMALL
GASTEIGER

@<TRIPOS>ATOM
      1 N         144.7999  141.8361  162.6843 N.3     1  UNL1       -0.2863
      2 H         145.1077  142.8037  162.5873 H       1  UNL1        0.1240
      3 C         144.1511  141.7212  164.0318 C.3     1  UNL1        0.1341
      4 C         143.4808  142.8317  164.7852 C.3     1  UNL1        0.0471
      5 C         142.9741  142.2724  166.0816 C.3     1  UNL1        0.1031
      6 N         143.3313  140.8164  166.1293 N.am    1  UNL1       -0.2252
      7 C         143.0163  139.8675  167.2475 C.2     1  UNL1        0.2563
      8 O         143.4393  138.4314  167.1542 O.2     1  UNL1       -0.2694
      9 C         144.0587  140.4757  164.8625 C.2     1  UNL1        0.2459
     10 O         144.5988  139.1264  164.4915 O.2     1  UNL1       -0.2730
     11 C         142.2783  140.3548  168.4592 C.ar    1  UNL1        0.0736
     12 C         143.0037  141.1330  169.5165 C.ar    1  UNL1        0.1034
     13 N         142.2657  141.6202  170.7281 N.ar    1  UNL1       -0.2417
     14 C         140.8024  141.3292  170.8823 C.ar    1  UNL1        0.1055
     15 C         140.0769  140.5509  169.8250 C.ar    1  UNL1        0.0539
     16 BR        138.6136  140.2599  169.9792 Br      1  UNL1       -0.0474
     17 C         140.8148  140.0637  168.6133 C.ar    1  UNL1        0.0143
     18 C         144.0214  141.5031  161.4461 C.3     1  UNL1        0.1151
     19 N         142.0569  139.7097  161.7087 N.ar    1  UNL1       -0.3070
     20 C         141.8848  138.2643  161.3461 C.ar    1  UNL1        0.1786
     21 N         143.1507  137.7967  160.6911 N.ar    1  UNL1       -0.2226
     22 C         144.1052  138.9532  160.6488 C.ar    1  UNL1        0.1147
     23 C         143.4292  140.1354  161.2777 C.ar    1  UNL1        0.0739
     24 C         141.0361  140.5770  162.3836 C.3     1  UNL1        0.1340
     25 C         138.5115  138.9060  165.7129 C.ar    1  UNL1        0.0684
     26 C         138.0709  140.1413  164.9851 C.ar    1  UNL1        0.0100
     27 C         138.9124  140.6983  163.8754 C.ar    1  UNL1       -0.0017
     28 C         140.1945  140.0200  163.4934 C.ar    1  UNL1        0.0005
     29 C         140.6351  138.7846  164.2211 C.ar    1  UNL1       -0.0017
     30 C         139.7936  138.2276  165.3309 C.ar    1  UNL1        0.0100
     31 N         136.8284  137.7920  167.9324 N.1     1  UNL1       -0.1908
     32 C         137.6700  138.3490  166.8227 C.1     1  UNL1        0.1004
@<TRIPOS>BOND
     1    31    32    3
     2    32    25    1
     3    25    26   ar
     4    26    27   ar
     5    27    28   ar
     6    28    24    1
     7    24    19    1
     8    19    20   ar
     9    20    21   ar
    10    21    22   ar
    11    22    23   ar
    12    23    18    1
    13    18     1    1
    14     3     1    1
    15     3     4    1
    16     4     5    1
    17     5     6    1
    18     6     7   am
    19     7     8    2
    20     7    11    1
    21    11    12   ar
    22    12    13   ar
    23    13    14   ar
    24    14    15   ar
    25    15    16    1
    26    15    17   ar
    27     6     9   am
    28     9    10    2
    29    28    29   ar
    30    29    30   ar
    31    30    25   ar
    32    23    19   ar
    33     9     3    1
    34    17    11   ar
    35     1     2    1
@<TRIPOS>MOLECULE
*****
 32 35 0 0 0
SMALL
GASTEIGER

@<TRIPOS>ATOM
      1 N         144.4454  139.0617  162.5615 N.3     1  UNL1       -0.2863
      2 H         145.4633  139.1051  162.6098 H       1  UNL1        0.1240
      3 C         143.9294  139.4945  163.9018 C.3     1  UNL1        0.1341
      4 C         143.1818  138.6355  164.8781 C.3     1  UNL1        0.0471
      5 C         142.8608  139.4725  166.0808 C.3     1  UNL1        0.1031
      6 N         143.4101  140.8486  165.8478 N.am    1  UNL1       -0.2252
      7 C         143.3156  142.0077  166.7952 C.2     1  UNL1        0.2563
      8 O         143.9158  143.3312  166.4234 O.2     1  UNL1       -0.2694
      9 C         144.0706  140.8623  164.5011 C.2     1  UNL1        0.2459
     10 O         144.7524  142.0374  163.8654 O.2     1  UNL1       -0.2730
     11 C         142.6207  141.8434  168.1144 C.ar    1  UNL1        0.0736
     12 C         143.2880  142.3049  169.3760 C.ar    1  UNL1        0.1034
     13 N         142.5932  142.1406  170.6952 N.ar    1  UNL1       -0.2417
     14 C         141.2313  141.5147  170.7528 C.ar    1  UNL1        0.1055
     15 C         140.5640  141.0532  169.4911 C.ar    1  UNL1        0.0539
     16 BR        139.2021  140.4273  169.5487 Br      1  UNL1       -0.0474
     17 C         141.2587  141.2175  168.1719 C.ar    1  UNL1        0.0143
     18 C         144.0385  139.8067  161.3248 C.3     1  UNL1        0.1151
     19 N         141.3927  139.8156  160.9441 N.ar    1  UNL1       -0.3070
     20 C         140.4634  139.1986  159.9413 C.ar    1  UNL1        0.1786
     21 N         141.2892  138.4144  158.9650 N.ar    1  UNL1       -0.2226
     22 C         142.7290  138.5468  159.3644 C.ar    1  UNL1        0.1147
     23 C         142.7930  139.4128  160.5876 C.ar    1  UNL1        0.0739
     24 C         140.9922  140.6831  162.1004 C.3     1  UNL1        0.1340
     25 C         138.5792  138.9528  165.4816 C.ar    1  UNL1        0.0684
     26 C         138.9923  138.0817  164.3326 C.ar    1  UNL1        0.0100
     27 C         139.7967  138.6585  163.2055 C.ar    1  UNL1       -0.0017
     28 C         140.1879  140.1064  163.2274 C.ar    1  UNL1        0.0005
     29 C         139.7747  140.9775  164.3765 C.ar    1  UNL1       -0.0017
     30 C         138.9703  140.4007  165.5036 C.ar    1  UNL1        0.0100
     31 N         136.9704  137.7992  167.7358 N.1     1  UNL1       -0.1908
     32 C         137.7748  138.3760  166.6087 C.1     1  UNL1        0.1004
@<TRIPOS>BOND
     1    31    32    3
     2    32    25    1
     3    25    26   ar
     4    26    27   ar
     5    27    28   ar
     6    28    24    1
     7    24    19    1
     8    19    20   ar
     9    20    21   ar
    10    21    22   ar
    11    22    23   ar
    12    23    18    1
    13    18     1    1
    14     3     1    1
    15     3     4    1
    16     4     5    1
    17     5     6    1
    18     6     7   am
    19     7     8    2
    20     7    11    1
    21    11    12   ar
    22    12    13   ar
    23    13    14   ar
    24    14    15   ar
    25    15    16    1
    26    15    17   ar
    27     6     9   am
    28     9    10    2
    29    28    29   ar
    30    29    30   ar
    31    30    25   ar
    32    23    19   ar
    33     9     3    1
    34    17    11   ar
    35     1     2    1
@<TRIPOS>MOLECULE
*****
 32 35 0 0 0
SMALL
GASTEIGER

@<TRIPOS>ATOM
      1 N         144.0826  142.4910  162.6414 N.3     1  UNL1       -0.2863
      2 H         144.0999  143.5066  162.5479 H       1  UNL1        0.1240
      3 C         143.5644  142.1917  164.0169 C.3     1  UNL1        0.1341
      4 C         142.8854  143.1648  164.9344 C.3     1  UNL1        0.0471
      5 C         142.5355  142.4411  166.2008 C.3     1  UNL1        0.1031
      6 N         142.9984  141.0208  166.0660 N.am    1  UNL1       -0.2252
      7 C         142.8512  139.9437  167.0995 C.2     1  UNL1        0.2563
      8 O         143.3658  138.5623  166.8217 O.2     1  UNL1       -0.2694
      9 C         143.6343  140.8665  164.7163 C.2     1  UNL1        0.2459
     10 O         144.2347  139.6081  164.1630 O.2     1  UNL1       -0.2730
     11 C         142.1895  140.2479  168.4109 C.ar    1  UNL1        0.0736
     12 C         143.0093  140.7313  169.5703 C.ar    1  UNL1        0.1034
     13 N         142.3477  141.0355  170.8816 N.ar    1  UNL1       -0.2417
     14 C         140.8663  140.8563  171.0336 C.ar    1  UNL1        0.1055
     15 C         140.0464  140.3729  169.8742 C.ar    1  UNL1        0.0539
     16 BR        138.5649  140.1937  170.0261 Br      1  UNL1       -0.0474
     17 C         140.7080  140.0687  168.5628 C.ar    1  UNL1        0.0143
     18 C         143.3653  141.9573  161.4370 C.3     1  UNL1        0.1151
     19 N         140.8221  141.1991  161.7567 N.ar    1  UNL1       -0.3070
     20 C         139.4874  141.7940  161.4180 C.ar    1  UNL1        0.1786
     21 N         139.7251  143.1158  160.7497 N.ar    1  UNL1       -0.2226
     22 C         141.2068  143.3378  160.6755 C.ar    1  UNL1        0.1147
     23 C         141.8847  142.1533  161.2979 C.ar    1  UNL1        0.0739
     24 C         141.0536  139.8816  162.4352 C.3     1  UNL1        0.1340
     25 C         138.3954  138.6030  165.8336 C.ar    1  UNL1        0.0684
     26 C         138.8184  140.0368  165.7108 C.ar    1  UNL1        0.0100
     27 C         139.7045  140.4630  164.5780 C.ar    1  UNL1       -0.0017
     28 C         140.1675  139.4554  163.5680 C.ar    1  UNL1        0.0005
     29 C         139.7445  138.0215  163.6908 C.ar    1  UNL1       -0.0017
     30 C         138.8584  137.5953  164.8236 C.ar    1  UNL1        0.0100
     31 N         136.6232  137.7506  168.0992 N.1     1  UNL1       -0.1908
     32 C         137.5093  138.1768  166.9664 C.1     1  UNL1        0.1004
@<TRIPOS>BOND
     1    31    32    3
     2    32    25    1
     3    25    26   ar
     4    26    27   ar
     5    27    28   ar
     6    28    24    1
     7    24    19    1
     8    19    20   ar
     9    20    21   ar
    10    21    22   ar
    11    22    23   ar
    12    23    18    1
    13    18     1    1
    14     3     1    1
    15     3     4    1
    16     4     5    1
    17     5     6    1
    18     6     7   am
    19     7     8    2
    20     7    11    1
    21    11    12   ar
    22    12    13   ar
    23    13    14   ar
    24    14    15   ar
    25    15    16    1
    26    15    17   ar
    27     6     9   am
    28     9    10    2
    29    28    29   ar
    30    29    30   ar
    31    30    25   ar
    32    23    19   ar
    33     9     3    1
    34    17    11   ar
    35     1     2    1
@<TRIPOS>MOLECULE
*****
 32 35 0 0 0
SMALL
GASTEIGER

@<TRIPOS>ATOM
      1 N         138.4641  144.8665  162.4792 N.3     1  UNL1       -0.2863
      2 H         138.0816  144.1765  161.8325 H       1  UNL1        0.1240
      3 C         138.8843  144.1197  163.7103 C.3     1  UNL1        0.1341
      4 C         139.3728  144.7324  164.9894 C.3     1  UNL1        0.0471
      5 C         139.6802  143.6205  165.9482 C.3     1  UNL1        0.1031
      6 N         139.3815  142.3207  165.2617 N.am    1  UNL1       -0.2252
      7 C         139.5459  140.9526  165.8542 C.2     1  UNL1        0.2563
      8 O         139.2049  139.7379  165.0428 O.2     1  UNL1       -0.2694
      9 C         138.8896  142.6292  163.8786 C.2     1  UNL1        0.2459
     10 O         138.4757  141.6238  162.8453 O.2     1  UNL1       -0.2730
     11 C         140.0512  140.7990  167.2582 C.ar    1  UNL1        0.0736
     12 C         139.2686  139.9944  168.2531 C.ar    1  UNL1        0.1034
     13 N         139.7739  139.8409  169.6571 N.ar    1  UNL1       -0.2417
     14 C         141.0618  140.4920  170.0661 C.ar    1  UNL1        0.1055
     15 C         141.8445  141.2966  169.0711 C.ar    1  UNL1        0.0539
     16 BR        143.1324  141.9478  169.4800 Br      1  UNL1       -0.0474
     17 C         141.3392  141.4502  167.6671 C.ar    1  UNL1        0.0143
     18 C         139.4699  145.6703  161.7096 C.3     1  UNL1        0.1151
     19 N         141.7817  144.4429  161.1675 N.ar    1  UNL1       -0.3070
     20 C         142.4005  143.8402  159.9412 C.ar    1  UNL1        0.1786
     21 N         141.4354  144.0072  158.8051 N.ar    1  UNL1       -0.2226
     22 C         140.2200  144.7131  159.3293 C.ar    1  UNL1        0.1147
     23 C         140.4341  144.9824  160.7893 C.ar    1  UNL1        0.0739
     24 C         142.4016  144.4967  162.5324 C.3     1  UNL1        0.1340
     25 C         143.2519  140.6857  164.7692 C.ar    1  UNL1        0.0684
     26 C         143.8264  141.9838  165.2537 C.ar    1  UNL1        0.0100
     27 C         143.5429  143.2542  164.5081 C.ar    1  UNL1       -0.0017
     28 C         142.6850  143.2263  163.2780 C.ar    1  UNL1        0.0005
     29 C         142.1106  141.9282  162.7935 C.ar    1  UNL1       -0.0017
     30 C         142.3940  140.6579  163.5391 C.ar    1  UNL1        0.0100
     31 N         143.8188  138.1450  166.2604 N.1     1  UNL1       -0.1908
     32 C         143.5354  139.4154  165.5148 C.1     1  UNL1        0.1004
@<TRIPOS>BOND
     1    31    32    3
     2    32    25    1
     3    25    26   ar
     4    26    27   ar
     5    27    28   ar
     6    28    24    1
     7    24    19    1
     8    19    20   ar
     9    20    21   ar
    10    21    22   ar
    11    22    23   ar
    12    23    18    1
    13    18     1    1
    14     3     1    1
    15     3     4    1
    16     4     5    1
    17     5     6    1
    18     6     7   am
    19     7     8    2
    20     7    11    1
    21    11    12   ar
    22    12    13   ar
    23    13    14   ar
    24    14    15   ar
    25    15    16    1
    26    15    17   ar
    27     6     9   am
    28     9    10    2
    29    28    29   ar
    30    29    30   ar
    31    30    25   ar
    32    23    19   ar
    33     9     3    1
    34    17    11   ar
    35     1     2    1
@<TRIPOS>MOLECULE
*****
 32 35 0 0 0
SMALL
GASTEIGER

@<TRIPOS>ATOM
      1 N         143.5136  142.7887  161.6261 N.3     1  UNL1       -0.2863
      2 H         142.8177  143.2833  161.0680 H       1  UNL1        0.1240
      3 C         142.8821  142.5098  162.9578 C.3     1  UNL1        0.1341
      4 C         143.4898  142.7958  164.2990 C.3     1  UNL1        0.0471
      5 C         142.5152  142.3587  165.3521 C.3     1  UNL1        0.1031
      6 N         141.3052  141.8026  164.6618 N.am    1  UNL1       -0.2252
      7 C         140.0831  141.2501  165.3333 C.2     1  UNL1        0.2563
      8 O         138.9457  140.7261  164.5075 O.2     1  UNL1       -0.2694
      9 C         141.5319  141.8960  163.1820 C.2     1  UNL1        0.2459
     10 O         140.5763  141.4532  162.1139 O.2     1  UNL1       -0.2730
     11 C         139.9982  141.2215  166.8307 C.ar    1  UNL1        0.0736
     12 C         139.5708  139.9674  167.5338 C.ar    1  UNL1        0.1034
     13 N         139.4859  139.9388  169.0311 N.ar    1  UNL1       -0.2417
     14 C         139.8285  141.1643  169.8253 C.ar    1  UNL1        0.1055
     15 C         140.2560  142.4184  169.1221 C.ar    1  UNL1        0.0539
     16 BR        140.5987  143.6439  169.9163 Br      1  UNL1       -0.0474
     17 C         140.3409  142.4471  167.6248 C.ar    1  UNL1        0.0143
     18 C         144.0185  141.6552  160.7832 C.3     1  UNL1        0.1151
     19 N         142.8992  139.3046  160.1776 N.ar    1  UNL1       -0.3070
     20 C         141.8190  138.8547  159.2391 C.ar    1  UNL1        0.1786
     21 N         141.3027  140.0619  158.5137 N.ar    1  UNL1       -0.2226
     22 C         142.0638  141.2579  159.0038 C.ar    1  UNL1        0.1147
     23 C         143.0505  140.7899  160.0322 C.ar    1  UNL1        0.0739
     24 C         143.6893  138.4240  161.0996 C.3     1  UNL1        0.1340
     25 C         143.2120  138.8287  165.5558 C.ar    1  UNL1        0.0684
     26 C         144.4668  139.3093  164.8893 C.ar    1  UNL1        0.0100
     27 C         144.6259  139.1744  163.4038 C.ar    1  UNL1       -0.0017
     28 C         143.5302  138.5589  162.5850 C.ar    1  UNL1        0.0005
     29 C         142.2754  138.0783  163.2516 C.ar    1  UNL1       -0.0017
     30 C         142.1162  138.2132  164.7370 C.ar    1  UNL1        0.0100
     31 N         142.8937  139.0985  168.5267 N.1     1  UNL1       -0.1908
     32 C         143.0528  138.9636  167.0413 C.1     1  UNL1        0.1004
@<TRIPOS>BOND
     1    31    32    3
     2    32    25    1
     3    25    26   ar
     4    26    27   ar
     5    27    28   ar
     6    28    24    1
     7    24    19    1
     8    19    20   ar
     9    20    21   ar
    10    21    22   ar
    11    22    23   ar
    12    23    18    1
    13    18     1    1
    14     3     1    1
    15     3     4    1
    16     4     5    1
    17     5     6    1
    18     6     7   am
    19     7     8    2
    20     7    11    1
    21    11    12   ar
    22    12    13   ar
    23    13    14   ar
    24    14    15   ar
    25    15    16    1
    26    15    17   ar
    27     6     9   am
    28     9    10    2
    29    28    29   ar
    30    29    30   ar
    31    30    25   ar
    32    23    19   ar
    33     9     3    1
    34    17    11   ar
    35     1     2    1
@<TRIPOS>MOLECULE
*****
 32 35 0 0 0
SMALL
GASTEIGER

@<TRIPOS>ATOM
      1 N         142.6929  139.0748  167.3138 N.3     1  UNL1       -0.2863
      2 H         141.7892  138.6411  167.5026 H       1  UNL1        0.1240
      3 C         142.7436  139.3454  165.8393 C.3     1  UNL1        0.1341
      4 C         143.4013  140.5218  165.1809 C.3     1  UNL1        0.0471
      5 C         143.2097  140.3905  163.6989 C.3     1  UNL1        0.1031
      6 N         142.4337  139.1330  163.4415 N.am    1  UNL1       -0.2252
      7 C         142.0186  138.6127  162.0973 C.2     1  UNL1        0.2563
      8 O         141.2415  137.3337  161.9953 O.2     1  UNL1       -0.2694
      9 C         142.1456  138.4870  164.7643 C.2     1  UNL1        0.2459
     10 O         141.3919  137.2074  164.9751 O.2     1  UNL1       -0.2730
     11 C         142.3806  139.3714  160.8549 C.ar    1  UNL1        0.0736
     12 C         143.6075  138.9963  160.0779 C.ar    1  UNL1        0.1034
     13 N         143.9696  139.7550  158.8355 N.ar    1  UNL1       -0.2417
     14 C         143.1046  140.8887  158.3703 C.ar    1  UNL1        0.1055
     15 C         141.8776  141.2638  159.1474 C.ar    1  UNL1        0.0539
     16 BR        141.0127  142.3975  158.6821 Br      1  UNL1       -0.0474
     17 C         141.5156  140.5052  160.3897 C.ar    1  UNL1        0.0143
     18 C         142.8434  140.2043  168.2893 C.3     1  UNL1        0.1151
     19 N         140.5548  141.4854  168.8052 N.ar    1  UNL1       -0.3070
     20 C         139.6424  141.5910  169.9911 C.ar    1  UNL1        0.1786
     21 N         140.2201  140.7571  171.0961 N.ar    1  UNL1       -0.2226
     22 C         141.4895  140.1361  170.5931 C.ar    1  UNL1        0.1147
     23 C         141.6964  140.5862  169.1772 C.ar    1  UNL1        0.0739
     24 C         140.3599  142.1604  167.4799 C.3     1  UNL1        0.1340
     25 C         138.7602  139.8275  163.9802 C.ar    1  UNL1        0.0684
     26 C         138.5884  139.3008  165.3741 C.ar    1  UNL1        0.0100
     27 C         139.1217  140.0785  166.5407 C.ar    1  UNL1       -0.0017
     28 C         139.8267  141.3828  166.3133 C.ar    1  UNL1        0.0005
     29 C         139.9984  141.9094  164.9194 C.ar    1  UNL1       -0.0017
     30 C         139.4652  141.1318  163.7528 C.ar    1  UNL1        0.0100
     31 N         137.6937  138.2722  161.6470 N.1     1  UNL1       -0.1908
     32 C         138.2269  139.0498  162.8136 C.1     1  UNL1        0.1004
@<TRIPOS>BOND
     1    31    32    3
     2    32    25    1
     3    25    26   ar
     4    26    27   ar
     5    27    28   ar
     6    28    24    1
     7    24    19    1
     8    19    20   ar
     9    20    21   ar
    10    21    22   ar
    11    22    23   ar
    12    23    18    1
    13    18     1    1
    14     3     1    1
    15     3     4    1
    16     4     5    1
    17     5     6    1
    18     6     7   am
    19     7     8    2
    20     7    11    1
    21    11    12   ar
    22    12    13   ar
    23    13    14   ar
    24    14    15   ar
    25    15    16    1
    26    15    17   ar
    27     6     9   am
    28     9    10    2
    29    28    29   ar
    30    29    30   ar
    31    30    25   ar
    32    23    19   ar
    33     9     3    1
    34    17    11   ar
    35     1     2    1
@<TRIPOS>MOLECULE
*****
 32 35 0 0 0
SMALL
GASTEIGER

@<TRIPOS>ATOM
      1 N         138.2610  137.9007  161.7339 N.3     1  UNL1       -0.2863
      2 H         138.1487  136.8879  161.7792 H       1  UNL1        0.1240
      3 C         138.7172  138.3469  163.0914 C.3     1  UNL1        0.1341
      4 C         139.2420  137.4596  164.1810 C.3     1  UNL1        0.0471
      5 C         139.5777  138.3232  165.3606 C.3     1  UNL1        0.1031
      6 N         139.2604  139.7442  165.0000 N.am    1  UNL1       -0.2252
      7 C         139.4430  140.9405  165.8863 C.2     1  UNL1        0.2563
      8 O         139.0797  142.3071  165.3858 O.2     1  UNL1       -0.2694
      9 C         138.7286  139.7589  163.5976 C.2     1  UNL1        0.2459
     10 O         138.2859  140.9725  162.8351 O.2     1  UNL1       -0.2730
     11 C         139.9888  140.7702  167.2731 C.ar    1  UNL1        0.0736
     12 C         139.2187  139.9817  168.2905 C.ar    1  UNL1        0.1034
     13 N         139.7644  139.8114  169.6773 N.ar    1  UNL1       -0.2417
     14 C         141.0802  140.4297  170.0466 C.ar    1  UNL1        0.1055
     15 C         141.8503  141.2182  169.0292 C.ar    1  UNL1        0.0539
     16 BR        143.1661  141.8365  169.3985 Br      1  UNL1       -0.0474
     17 C         141.3046  141.3885  167.6424 C.ar    1  UNL1        0.0143
     18 C         139.1038  138.1893  160.5270 C.3     1  UNL1        0.1151
     19 N         140.3043  140.4313  159.7043 N.ar    1  UNL1       -0.3070
     20 C         139.8425  141.7125  159.0755 C.ar    1  UNL1        0.1786
     21 N         138.3542  141.6345  158.9040 N.ar    1  UNL1       -0.2226
     22 C         137.8964  140.3052  159.4270 C.ar    1  UNL1        0.1147
     23 C         139.1016  139.5616  159.9215 C.ar    1  UNL1        0.0739
     24 C         141.7203  140.0813  160.0544 C.3     1  UNL1        0.1340
     25 C         142.8210  139.1571  164.3187 C.ar    1  UNL1        0.0684
     26 C         142.7439  138.0518  163.3076 C.ar    1  UNL1        0.0100
     27 C         142.3770  138.3599  161.8862 C.ar    1  UNL1       -0.0017
     28 C         142.0872  139.7733  161.4758 C.ar    1  UNL1        0.0005
     29 C         142.1642  140.8785  162.4870 C.ar    1  UNL1       -0.0017
     30 C         142.5311  140.5704  163.9084 C.ar    1  UNL1        0.0100
     31 N         143.5548  138.5409  167.1616 N.1     1  UNL1       -0.1908
     32 C         143.1879  138.8490  165.7401 C.1     1  UNL1        0.1004
@<TRIPOS>BOND
     1    31    32    3
     2    32    25    1
     3    25    26   ar
     4    26    27   ar
     5    27    28   ar
     6    28    24    1
     7    24    19    1
     8    19    20   ar
     9    20    21   ar
    10    21    22   ar
    11    22    23   ar
    12    23    18    1
    13    18     1    1
    14     3     1    1
    15     3     4    1
    16     4     5    1
    17     5     6    1
    18     6     7   am
    19     7     8    2
    20     7    11    1
    21    11    12   ar
    22    12    13   ar
    23    13    14   ar
    24    14    15   ar
    25    15    16    1
    26    15    17   ar
    27     6     9   am
    28     9    10    2
    29    28    29   ar
    30    29    30   ar
    31    30    25   ar
    32    23    19   ar
    33     9     3    1
    34    17    11   ar
    35     1     2    1
@<TRIPOS>MOLECULE
*****
 32 35 0 0 0
SMALL
GASTEIGER

@<TRIPOS>ATOM
      1 N         137.0546  140.7447  161.9876 N.3     1  UNL1       -0.2863
      2 H         136.2201  140.2850  162.3520 H       1  UNL1        0.1240
      3 C         137.9439  141.0230  163.1630 C.3     1  UNL1        0.1341
      4 C         138.0766  140.1701  164.3897 C.3     1  UNL1        0.0471
      5 C         139.0713  140.8231  165.3030 C.3     1  UNL1        0.1031
      6 N         139.5533  142.0796  164.6407 N.am    1  UNL1       -0.2252
      7 C         140.5561  143.0434  165.2023 C.2     1  UNL1        0.2563
      8 O         140.9426  144.2640  164.4208 O.2     1  UNL1       -0.2694
      9 C         138.8566  142.2032  163.3181 C.2     1  UNL1        0.2459
     10 O         139.0402  143.3123  162.3250 O.2     1  UNL1       -0.2730
     11 C         141.1725  142.7866  166.5456 C.ar    1  UNL1        0.0736
     12 C         142.6100  142.3697  166.6438 C.ar    1  UNL1        0.1034
     13 N         143.2263  142.1129  167.9869 N.ar    1  UNL1       -0.2417
     14 C         142.4052  142.2731  169.2319 C.ar    1  UNL1        0.1055
     15 C         140.9676  142.6901  169.1337 C.ar    1  UNL1        0.0539
     16 BR        140.1465  142.8502  170.3787 Br      1  UNL1       -0.0474
     17 C         140.3512  142.9468  167.7906 C.ar    1  UNL1        0.0143
     18 C         137.5536  139.9000  160.8529 C.3     1  UNL1        0.1151
     19 N         139.9704  139.7875  159.7164 N.ar    1  UNL1       -0.3070
     20 C         140.7241  140.6412  158.7401 C.ar    1  UNL1        0.1786
     21 N         139.8497  141.8018  158.3677 N.ar    1  UNL1       -0.2226
     22 C         138.5556  141.6654  159.1138 C.ar    1  UNL1        0.1147
     23 C         138.6302  140.4205  159.9473 C.ar    1  UNL1        0.0739
     24 C         140.4692  138.5230  160.3504 C.3     1  UNL1        0.1340
     25 C         142.1452  138.6086  164.5258 C.ar    1  UNL1        0.0684
     26 C         142.7435  139.4775  163.4595 C.ar    1  UNL1        0.0100
     27 C         142.1848  139.4489  162.0677 C.ar    1  UNL1       -0.0017
     28 C         141.0279  138.5515  161.7422 C.ar    1  UNL1        0.0005
     29 C         140.4296  137.6826  162.8085 C.ar    1  UNL1       -0.0017
     30 C         140.9882  137.7112  164.2003 C.ar    1  UNL1        0.0100
     31 N         143.2625  138.6656  167.3094 N.1     1  UNL1       -0.1908
     32 C         142.7039  138.6371  165.9176 C.1     1  UNL1        0.1004
@<TRIPOS>BOND
     1    31    32    3
     2    32    25    1
     3    25    26   ar
     4    26    27   ar
     5    27    28   ar
     6    28    24    1
     7    24    19    1
     8    19    20   ar
     9    20    21   ar
    10    21    22   ar
    11    22    23   ar
    12    23    18    1
    13    18     1    1
    14     3     1    1
    15     3     4    1
    16     4     5    1
    17     5     6    1
    18     6     7   am
    19     7     8    2
    20     7    11    1
    21    11    12   ar
    22    12    13   ar
    23    13    14   ar
    24    14    15   ar
    25    15    16    1
    26    15    17   ar
    27     6     9   am
    28     9    10    2
    29    28    29   ar
    30    29    30   ar
    31    30    25   ar
    32    23    19   ar
    33     9     3    1
    34    17    11   ar
    35     1     2    1
