@<TRIPOS>MOLECULE
*****
 26 29 0 0 0
SMALL
GASTEIGER

@<TRIPOS>ATOM
      1 C         138.1566  143.1612  162.7116 C.ar    1  UNL1        0.1195
      2 C         137.4133  141.8596  162.7686 C.ar    1  UNL1        0.1196
      3 N         137.6547  140.9071  163.9019 N.ar    1  UNL1       -0.2379
      4 C         138.6395  141.2561  164.9782 C.ar    1  UNL1        0.1302
      5 C         138.8809  140.3035  166.1115 C.ar    1  UNL1        0.1478
      6 N         139.8657  140.6526  167.1877 N.ar    1  UNL1       -0.2278
      7 C         140.6090  141.9542  167.1307 C.ar    1  UNL1        0.1013
      8 C         140.3676  142.9068  165.9975 C.ar    1  UNL1        0.0414
      9 C         139.3828  142.5577  164.9212 C.ar    1  UNL1        0.1032
     10 N         139.1414  143.5102  163.7879 N.ar    1  UNL1       -0.2405
     11 C         141.5938  142.3032  168.2070 C.ar    1  UNL1        0.0931
     12 C         141.2584  142.8116  169.5778 C.ar    1  UNL1        0.0424
     13 C         142.5442  143.0277  170.3195 C.ar    1  UNL1        0.1215
     14 N         143.6742  142.6530  169.4070 N.ar    1  UNL1       -0.1710
     15 N         143.0868  142.2052  168.1014 N.ar    1  UNL1       -0.2742
     16 H         143.5925  141.9005  167.3136 H       1  UNL1        0.1890
     17 N         138.1376  139.0020  166.1685 N.pl3   1  UNL1       -0.3168
     18 H         137.2181  138.9752  166.5193 H       1  UNL1        0.1482
     19 C         138.7952  137.7411  165.6912 C.3     1  UNL1        0.0895
     20 C         139.5962  137.7468  164.4229 C.3     1  UNL1        0.0353
     21 C         141.0912  137.8552  164.4805 C.3     1  UNL1        0.0045
     22 C         141.8922  137.8609  163.2123 C.3     1  UNL1        0.0172
     23 C         141.1982  137.7582  161.8864 C.3     1  UNL1        0.0686
     24 N         139.7032  137.6499  161.8288 N.3     1  UNL1       -0.2974
     25 C         138.9022  137.6442  163.0971 C.3     1  UNL1        0.0702
     26 H         139.4896  136.7795  161.3417 H       1  UNL1        0.1232
@<TRIPOS>BOND
     1     1     2   ar
     2     2     3   ar
     3     3     4   ar
     4     4     5   ar
     5     5    17    1
     6    17    19    1
     7    20    19    1
     8    20    21    1
     9    21    22    1
    10    22    23    1
    11    23    24    1
    12    24    25    1
    13     5     6   ar
    14     6     7   ar
    15     7    11    1
    16    11    12   ar
    17    12    13   ar
    18    13    14   ar
    19    14    15   ar
    20     7     8   ar
    21     8     9   ar
    22     9    10   ar
    23    10     1   ar
    24     9     4   ar
    25    25    20    1
    26    15    11   ar
    27    17    18    1
    28    24    26    1
    29    15    16    1
@<TRIPOS>MOLECULE
*****
 26 29 0 0 0
SMALL
GASTEIGER

@<TRIPOS>ATOM
      1 C         138.4528  137.9207  162.2773 C.ar    1  UNL1        0.1195
      2 C         138.4004  139.2757  161.6360 C.ar    1  UNL1        0.1196
      3 N         138.6212  140.5066  162.4643 N.ar    1  UNL1       -0.2379
      4 C         138.8945  140.3825  163.9339 C.ar    1  UNL1        0.1302
      5 C         139.1153  141.6135  164.7622 C.ar    1  UNL1        0.1478
      6 N         139.3885  141.4894  166.2319 N.ar    1  UNL1       -0.2278
      7 C         139.4409  140.1344  166.8733 C.ar    1  UNL1        0.1013
      8 C         139.2201  138.9035  166.0450 C.ar    1  UNL1        0.0414
      9 C         138.9469  139.0276  164.5753 C.ar    1  UNL1        0.1032
     10 N         138.7260  137.7967  163.7470 N.ar    1  UNL1       -0.2405
     11 C         139.7142  140.0104  168.3429 C.ar    1  UNL1        0.0931
     12 C         141.0641  140.0543  168.9956 C.ar    1  UNL1        0.0424
     13 C         140.8697  139.8917  170.4740 C.ar    1  UNL1        0.1215
     14 N         139.3996  139.7474  170.7351 N.ar    1  UNL1       -0.1710
     15 N         138.6855  139.8208  169.4180 N.ar    1  UNL1       -0.2742
     16 H         137.7125  139.7559  169.2829 H       1  UNL1        0.1890
     17 N         139.0629  142.9684  164.1209 N.pl3   1  UNL1       -0.3168
     18 H         138.4237  143.1441  163.3930 H       1  UNL1        0.1482
     19 C         139.9843  144.0557  164.5886 C.3     1  UNL1        0.0895
     20 C         141.3710  144.1573  164.0256 C.3     1  UNL1        0.0353
     21 C         142.4837  143.3469  164.6216 C.3     1  UNL1        0.0045
     22 C         143.8703  143.4485  164.0588 C.3     1  UNL1        0.0172
     23 C         144.1444  144.3606  162.8998 C.3     1  UNL1        0.0686
     24 N         143.0317  145.1710  162.3038 N.3     1  UNL1       -0.2974
     25 C         141.6450  145.0694  162.8668 C.3     1  UNL1        0.0702
     26 H         142.9702  144.9082  161.3202 H       1  UNL1        0.1232
@<TRIPOS>BOND
     1     1     2   ar
     2     2     3   ar
     3     3     4   ar
     4     4     5   ar
     5     5    17    1
     6    17    19    1
     7    20    19    1
     8    20    21    1
     9    21    22    1
    10    22    23    1
    11    23    24    1
    12    24    25    1
    13     5     6   ar
    14     6     7   ar
    15     7    11    1
    16    11    12   ar
    17    12    13   ar
    18    13    14   ar
    19    14    15   ar
    20     7     8   ar
    21     8     9   ar
    22     9    10   ar
    23    10     1   ar
    24     9     4   ar
    25    25    20    1
    26    15    11   ar
    27    17    18    1
    28    24    26    1
    29    15    16    1
@<TRIPOS>MOLECULE
*****
 26 29 0 0 0
SMALL
GASTEIGER

@<TRIPOS>ATOM
      1 C         141.6243  137.6774  162.2157 C.ar    1  UNL1        0.1195
      2 C         140.4972  138.2383  161.4002 C.ar    1  UNL1        0.1196
      3 N         139.4045  139.0194  162.0680 N.ar    1  UNL1       -0.2379
      4 C         139.4388  139.2395  163.5513 C.ar    1  UNL1        0.1302
      5 C         138.3461  140.0205  164.2191 C.ar    1  UNL1        0.1478
      6 N         138.3805  140.2407  165.7024 N.ar    1  UNL1       -0.2278
      7 C         139.5076  139.6797  166.5180 C.ar    1  UNL1        0.1013
      8 C         140.6003  138.8987  165.8502 C.ar    1  UNL1        0.0414
      9 C         140.5659  138.6786  164.3668 C.ar    1  UNL1        0.1032
     10 N         141.6586  137.8975  163.6990 N.ar    1  UNL1       -0.2405
     11 C         139.5419  139.8999  168.0014 C.ar    1  UNL1        0.0931
     12 C         140.6718  140.5107  168.7762 C.ar    1  UNL1        0.0424
     13 C         140.2806  140.5362  170.2240 C.ar    1  UNL1        0.1215
     14 N         138.9089  139.9411  170.3440 N.ar    1  UNL1       -0.1710
     15 N         138.4524  139.5478  168.9704 N.ar    1  UNL1       -0.2742
     16 H         137.5892  139.1317  168.7445 H       1  UNL1        0.1890
     17 N         137.2191  140.5814  163.4036 N.pl3   1  UNL1       -0.3168
     18 H         136.3776  140.0782  163.3151 H       1  UNL1        0.1482
     19 C         137.3742  141.9091  162.7229 C.3     1  UNL1        0.0895
     20 C         138.4069  142.8837  163.2064 C.3     1  UNL1        0.0353
     21 C         138.1030  143.7843  164.3668 C.3     1  UNL1        0.0045
     22 C         139.1355  144.7589  164.8504 C.3     1  UNL1        0.0172
     23 C         140.4721  144.8330  164.1735 C.3     1  UNL1        0.0686
     24 N         140.7760  143.9324  163.0130 N.3     1  UNL1       -0.2974
     25 C         139.7434  142.9578  162.5295 C.3     1  UNL1        0.0702
     26 H         141.5980  143.3865  163.2713 H       1  UNL1        0.1232
@<TRIPOS>BOND
     1     1     2   ar
     2     2     3   ar
     3     3     4   ar
     4     4     5   ar
     5     5    17    1
     6    17    19    1
     7    20    19    1
     8    20    21    1
     9    21    22    1
    10    22    23    1
    11    23    24    1
    12    24    25    1
    13     5     6   ar
    14     6     7   ar
    15     7    11    1
    16    11    12   ar
    17    12    13   ar
    18    13    14   ar
    19    14    15   ar
    20     7     8   ar
    21     8     9   ar
    22     9    10   ar
    23    10     1   ar
    24     9     4   ar
    25    25    20    1
    26    15    11   ar
    27    17    18    1
    28    24    26    1
    29    15    16    1
@<TRIPOS>MOLECULE
*****
 26 29 0 0 0
SMALL
GASTEIGER

@<TRIPOS>ATOM
      1 C         144.5017  140.2272  163.3581 C.ar    1  UNL1        0.1195
      2 C         143.4915  139.9320  162.2893 C.ar    1  UNL1        0.1196
      3 N         142.0550  139.7055  162.6570 N.ar    1  UNL1       -0.2379
      4 C         141.6286  139.7743  164.0934 C.ar    1  UNL1        0.1302
      5 C         140.1921  139.5478  164.4610 C.ar    1  UNL1        0.1478
      6 N         139.7658  139.6166  165.8975 N.ar    1  UNL1       -0.2278
      7 C         140.7759  139.9119  166.9664 C.ar    1  UNL1        0.1013
      8 C         142.2124  140.1384  166.5988 C.ar    1  UNL1        0.0414
      9 C         142.6388  140.0696  165.1622 C.ar    1  UNL1        0.1032
     10 N         144.0753  140.2960  164.7946 N.ar    1  UNL1       -0.2405
     11 C         140.3495  139.9807  168.4028 C.ar    1  UNL1        0.0931
     12 C         141.2442  140.2506  169.5762 C.ar    1  UNL1        0.0424
     13 C         140.4013  140.2284  170.8167 C.ar    1  UNL1        0.1215
     14 N         138.9855  139.9448  170.4100 N.ar    1  UNL1       -0.1710
     15 N         138.9536  139.7917  168.9182 N.ar    1  UNL1       -0.2742
     16 H         138.1564  139.6008  168.3730 H       1  UNL1        0.1890
     17 N         139.1820  139.2526  163.3922 N.pl3   1  UNL1       -0.3168
     18 H         139.3789  138.5794  162.7013 H       1  UNL1        0.1482
     19 C         137.8719  139.9828  163.3761 C.3     1  UNL1        0.0895
     20 C         137.8488  141.4800  163.2863 C.3     1  UNL1        0.0353
     21 C         137.8340  142.3063  164.5380 C.3     1  UNL1        0.0045
     22 C         137.8110  143.8034  164.4482 C.3     1  UNL1        0.0172
     23 C         137.8027  144.4743  163.1066 C.3     1  UNL1        0.0686
     24 N         137.8175  143.6480  161.8548 N.3     1  UNL1       -0.2974
     25 C         137.8406  142.1508  161.9447 C.3     1  UNL1        0.0702
     26 H         138.6470  143.9242  161.3294 H       1  UNL1        0.1232
@<TRIPOS>BOND
     1     1     2   ar
     2     2     3   ar
     3     3     4   ar
     4     4     5   ar
     5     5    17    1
     6    17    19    1
     7    20    19    1
     8    20    21    1
     9    21    22    1
    10    22    23    1
    11    23    24    1
    12    24    25    1
    13     5     6   ar
    14     6     7   ar
    15     7    11    1
    16    11    12   ar
    17    12    13   ar
    18    13    14   ar
    19    14    15   ar
    20     7     8   ar
    21     8     9   ar
    22     9    10   ar
    23    10     1   ar
    24     9     4   ar
    25    25    20    1
    26    15    11   ar
    27    17    18    1
    28    24    26    1
    29    15    16    1
@<TRIPOS>MOLECULE
*****
 26 29 0 0 0
SMALL
GASTEIGER

@<TRIPOS>ATOM
      1 C         141.4984  141.3292  169.5431 C.ar    1  UNL1        0.1195
      2 C         140.6890  140.0669  169.5831 C.ar    1  UNL1        0.1196
      3 N         139.7774  139.7240  168.4423 N.ar    1  UNL1       -0.2379
      4 C         139.6752  140.6434  167.2615 C.ar    1  UNL1        0.1302
      5 C         138.7636  140.3004  166.1207 C.ar    1  UNL1        0.1478
      6 N         138.6613  141.2198  164.9399 N.ar    1  UNL1       -0.2278
      7 C         139.4707  142.4821  164.8999 C.ar    1  UNL1        0.1013
      8 C         140.3823  142.8250  166.0406 C.ar    1  UNL1        0.0414
      9 C         140.4845  141.9056  167.2215 C.ar    1  UNL1        0.1032
     10 N         141.3962  142.2485  168.3623 N.ar    1  UNL1       -0.2405
     11 C         139.3685  143.4014  163.7191 C.ar    1  UNL1        0.0931
     12 C         140.2180  143.3481  162.4840 C.ar    1  UNL1        0.0424
     13 C         139.7733  144.4492  161.5676 C.ar    1  UNL1        0.1215
     14 N         138.6489  145.1830  162.2363 N.ar    1  UNL1       -0.1710
     15 N         138.3987  144.5354  163.5660 N.ar    1  UNL1       -0.2742
     16 H         137.7176  144.8070  164.2229 H       1  UNL1        0.1890
     17 N         137.9542  139.0382  166.1608 N.pl3   1  UNL1       -0.3168
     18 H         137.0260  139.0588  166.4882 H       1  UNL1        0.1482
     19 C         138.5591  137.7445  165.7020 C.3     1  UNL1        0.0895
     20 C         139.4551  137.7204  164.4992 C.3     1  UNL1        0.0353
     21 C         140.9443  137.7687  164.6722 C.3     1  UNL1        0.0045
     22 C         141.8402  137.7446  163.4695 C.3     1  UNL1        0.0172
     23 C         141.2470  137.6722  162.0936 C.3     1  UNL1        0.0686
     24 N         139.7578  137.6239  161.9206 N.3     1  UNL1       -0.2974
     25 C         138.8618  137.6480  163.1234 C.3     1  UNL1        0.0702
     26 H         139.5480  136.7636  161.4143 H       1  UNL1        0.1232
@<TRIPOS>BOND
     1     1     2   ar
     2     2     3   ar
     3     3     4   ar
     4     4     5   ar
     5     5    17    1
     6    17    19    1
     7    20    19    1
     8    20    21    1
     9    21    22    1
    10    22    23    1
    11    23    24    1
    12    24    25    1
    13     5     6   ar
    14     6     7   ar
    15     7    11    1
    16    11    12   ar
    17    12    13   ar
    18    13    14   ar
    19    14    15   ar
    20     7     8   ar
    21     8     9   ar
    22     9    10   ar
    23    10     1   ar
    24     9     4   ar
    25    25    20    1
    26    15    11   ar
    27    17    18    1
    28    24    26    1
    29    15    16    1
@<TRIPOS>MOLECULE
*****
 26 29 0 0 0
SMALL
GASTEIGER

@<TRIPOS>ATOM
      1 C         143.9080  144.1908  162.9085 C.ar    1  UNL1        0.1195
      2 C         142.4881  144.5179  162.5527 C.ar    1  UNL1        0.1196
      3 N         141.3659  144.0288  163.4195 N.ar    1  UNL1       -0.2379
      4 C         141.6636  143.2124  164.6422 C.ar    1  UNL1        0.1302
      5 C         140.5414  142.7233  165.5090 C.ar    1  UNL1        0.1478
      6 N         140.8392  141.9069  166.7316 N.ar    1  UNL1       -0.2278
      7 C         142.2592  141.5797  167.0875 C.ar    1  UNL1        0.1013
      8 C         143.3814  142.0689  166.2207 C.ar    1  UNL1        0.0414
      9 C         143.0836  142.8853  164.9980 C.ar    1  UNL1        0.1032
     10 N         144.2058  143.3744  164.1312 N.ar    1  UNL1       -0.2405
     11 C         142.5569  140.7634  168.3101 C.ar    1  UNL1        0.0931
     12 C         142.6692  141.2843  169.7123 C.ar    1  UNL1        0.0424
     13 C         142.9763  140.1256  170.6141 C.ar    1  UNL1        0.1215
     14 N         143.0539  138.8886  169.7691 N.ar    1  UNL1       -0.1710
     15 N         142.7946  139.2828  168.3453 N.ar    1  UNL1       -0.2742
     16 H         142.7827  138.6762  167.5699 H       1  UNL1        0.1890
     17 N         139.1215  143.0505  165.1531 N.pl3   1  UNL1       -0.3168
     18 H         138.7394  143.9223  165.4045 H       1  UNL1        0.1482
     19 C         138.2837  142.0494  164.4143 C.3     1  UNL1        0.0895
     20 C         138.6109  140.5880  164.5007 C.3     1  UNL1        0.0353
     21 C         138.1483  139.7843  165.6797 C.3     1  UNL1        0.0045
     22 C         138.4755  138.3230  165.7662 C.3     1  UNL1        0.0172
     23 C         139.2652  137.6653  164.6735 C.3     1  UNL1        0.0686
     24 N         139.7278  138.4690  163.4944 N.3     1  UNL1       -0.2974
     25 C         139.4006  139.9304  163.4081 C.3     1  UNL1        0.0702
     26 H         139.3311  138.0288  162.6642 H       1  UNL1        0.1232
@<TRIPOS>BOND
     1     1     2   ar
     2     2     3   ar
     3     3     4   ar
     4     4     5   ar
     5     5    17    1
     6    17    19    1
     7    20    19    1
     8    20    21    1
     9    21    22    1
    10    22    23    1
    11    23    24    1
    12    24    25    1
    13     5     6   ar
    14     6     7   ar
    15     7    11    1
    16    11    12   ar
    17    12    13   ar
    18    13    14   ar
    19    14    15   ar
    20     7     8   ar
    21     8     9   ar
    22     9    10   ar
    23    10     1   ar
    24     9     4   ar
    25    25    20    1
    26    15    11   ar
    27    17    18    1
    28    24    26    1
    29    15    16    1
@<TRIPOS>MOLECULE
*****
 26 29 0 0 0
SMALL
GASTEIGER

@<TRIPOS>ATOM
      1 C         143.3323  138.2686  161.6221 C.ar    1  UNL1        0.1195
      2 C         144.0786  139.5226  161.2751 C.ar    1  UNL1        0.1196
      3 N         144.2799  140.5870  162.3126 N.ar    1  UNL1       -0.2379
      4 C         143.7350  140.3974  163.6971 C.ar    1  UNL1        0.1302
      5 C         143.9363  141.4619  164.7347 C.ar    1  UNL1        0.1478
      6 N         143.3914  141.2723  166.1192 N.ar    1  UNL1       -0.2278
      7 C         142.6450  140.0182  166.4663 C.ar    1  UNL1        0.1013
      8 C         142.4437  138.9538  165.4288 C.ar    1  UNL1        0.0414
      9 C         142.9887  139.1434  164.0442 C.ar    1  UNL1        0.1032
     10 N         142.7874  138.0790  163.0067 N.ar    1  UNL1       -0.2405
     11 C         142.1001  139.8287  167.8509 C.ar    1  UNL1        0.0931
     12 C         140.7541  140.2774  168.3377 C.ar    1  UNL1        0.0424
     13 C         140.6276  139.8831  169.7795 C.ar    1  UNL1        0.1215
     14 N         141.8954  139.1908  170.1836 N.ar    1  UNL1       -0.1710
     15 N         142.8054  139.1571  168.9917 N.ar    1  UNL1       -0.2742
     16 H         143.7073  138.7634  168.9632 H       1  UNL1        0.1890
     17 N         144.6826  142.7159  164.3876 N.pl3   1  UNL1       -0.3168
     18 H         145.6212  142.6651  164.0948 H       1  UNL1        0.1482
     19 C         143.9990  144.0473  164.4868 C.3     1  UNL1        0.0895
     20 C         142.9442  144.4250  163.4894 C.3     1  UNL1        0.0353
     21 C         141.6042  144.9069  163.9609 C.3     1  UNL1        0.0045
     22 C         140.5495  145.2846  162.9635 C.3     1  UNL1        0.0172
     23 C         140.8346  145.1803  161.4945 C.3     1  UNL1        0.0686
     24 N         142.1745  144.6983  161.0230 N.3     1  UNL1       -0.2974
     25 C         143.2293  144.3207  162.0204 C.3     1  UNL1        0.0702
     26 H         142.5680  145.4411  160.4453 H       1  UNL1        0.1232
@<TRIPOS>BOND
     1     1     2   ar
     2     2     3   ar
     3     3     4   ar
     4     4     5   ar
     5     5    17    1
     6    17    19    1
     7    20    19    1
     8    20    21    1
     9    21    22    1
    10    22    23    1
    11    23    24    1
    12    24    25    1
    13     5     6   ar
    14     6     7   ar
    15     7    11    1
    16    11    12   ar
    17    12    13   ar
    18    13    14   ar
    19    14    15   ar
    20     7     8   ar
    21     8     9   ar
    22     9    10   ar
    23    10     1   ar
    24     9     4   ar
    25    25    20    1
    26    15    11   ar
    27    17    18    1
    28    24    26    1
    29    15    16    1
@<TRIPOS>MOLECULE
*****
 26 29 0 0 0
SMALL
GASTEIGER

@<TRIPOS>ATOM
      1 C         144.9310  141.6874  162.4311 C.ar    1  UNL1        0.1195
      2 C         144.5837  140.2398  162.2472 C.ar    1  UNL1        0.1196
      3 N         143.8373  139.5053  163.3212 N.ar    1  UNL1       -0.2379
      4 C         143.4383  140.2183  164.5790 C.ar    1  UNL1        0.1302
      5 C         142.6920  139.4838  165.6530 C.ar    1  UNL1        0.1478
      6 N         142.2930  140.1968  166.9109 N.ar    1  UNL1       -0.2278
      7 C         142.6403  141.6445  167.0949 C.ar    1  UNL1        0.1013
      8 C         143.3866  142.3790  166.0209 C.ar    1  UNL1        0.0414
      9 C         143.7856  141.6659  164.7630 C.ar    1  UNL1        0.1032
     10 N         144.5320  142.4004  163.6890 N.ar    1  UNL1       -0.2405
     11 C         142.2413  142.3575  168.3527 C.ar    1  UNL1        0.0931
     12 C         140.8505  142.7797  168.7237 C.ar    1  UNL1        0.0424
     13 C         140.9126  143.4567  170.0607 C.ar    1  UNL1        0.1215
     14 N         142.3418  143.4529  170.5162 N.ar    1  UNL1       -0.1710
     15 N         143.1629  142.7736  169.4606 N.ar    1  UNL1       -0.2742
     16 H         144.1360  142.6266  169.4898 H       1  UNL1        0.1890
     17 N         142.3447  138.0362  165.4691 N.pl3   1  UNL1       -0.3168
     18 H         142.9133  137.3390  165.8688 H       1  UNL1        0.1482
     19 C         141.1310  137.6510  164.6763 C.3     1  UNL1        0.0895
     20 C         140.0472  138.6578  164.4272 C.3     1  UNL1        0.0353
     21 C         139.9449  139.3348  163.0926 C.3     1  UNL1        0.0045
     22 C         138.8612  140.3415  162.8434 C.3     1  UNL1        0.0172
     23 C         137.8798  140.6713  163.9289 C.3     1  UNL1        0.0686
     24 N         137.9822  139.9943  165.2635 N.3     1  UNL1       -0.2974
     25 C         139.0659  138.9875  165.5126 C.3     1  UNL1        0.0702
     26 H         137.0947  139.5165  165.4201 H       1  UNL1        0.1232
@<TRIPOS>BOND
     1     1     2   ar
     2     2     3   ar
     3     3     4   ar
     4     4     5   ar
     5     5    17    1
     6    17    19    1
     7    20    19    1
     8    20    21    1
     9    21    22    1
    10    22    23    1
    11    23    24    1
    12    24    25    1
    13     5     6   ar
    14     6     7   ar
    15     7    11    1
    16    11    12   ar
    17    12    13   ar
    18    13    14   ar
    19    14    15   ar
    20     7     8   ar
    21     8     9   ar
    22     9    10   ar
    23    10     1   ar
    24     9     4   ar
    25    25    20    1
    26    15    11   ar
    27    17    18    1
    28    24    26    1
    29    15    16    1
@<TRIPOS>MOLECULE
*****
 26 29 0 0 0
SMALL
GASTEIGER

@<TRIPOS>ATOM
      1 C         144.1242  139.0231  165.2468 C.ar    1  UNL1        0.1195
      2 C         142.7667  138.5902  165.7155 C.ar    1  UNL1        0.1196
      3 N         141.7193  138.1949  164.7171 N.ar    1  UNL1       -0.2379
      4 C         142.0295  138.2325  163.2500 C.ar    1  UNL1        0.1302
      5 C         140.9821  137.8372  162.2516 C.ar    1  UNL1        0.1478
      6 N         141.2923  137.8748  160.7846 N.ar    1  UNL1       -0.2278
      7 C         142.6498  138.3077  160.3158 C.ar    1  UNL1        0.1013
      8 C         143.6972  138.7030  161.3142 C.ar    1  UNL1        0.0414
      9 C         143.3870  138.6654  162.7813 C.ar    1  UNL1        0.1032
     10 N         144.4344  139.0607  163.7797 N.ar    1  UNL1       -0.2405
     11 C         142.9600  138.3453  158.8487 C.ar    1  UNL1        0.0931
     12 C         142.4627  137.3763  157.8173 C.ar    1  UNL1        0.0424
     13 C         143.0173  137.7907  156.4866 C.ar    1  UNL1        0.1215
     14 N         143.8572  139.0158  156.6956 N.ar    1  UNL1       -0.1710
     15 N         143.8218  139.3586  158.1555 N.ar    1  UNL1       -0.2742
     16 H         144.2832  140.1156  158.5835 H       1  UNL1        0.1890
     17 N         139.6246  137.4043  162.7203 N.pl3   1  UNL1       -0.3168
     18 H         139.5356  136.6323  163.3246 H       1  UNL1        0.1482
     19 C         138.4027  138.1478  162.2683 C.3     1  UNL1        0.0895
     20 C         138.1524  139.5448  162.7538 C.3     1  UNL1        0.0353
     21 C         138.4065  139.8966  164.1897 C.3     1  UNL1        0.0045
     22 C         138.1562  141.2936  164.6752 C.3     1  UNL1        0.0172
     23 C         137.6518  142.3389  163.7249 C.3     1  UNL1        0.0686
     24 N         137.3978  141.9871  162.2890 N.3     1  UNL1       -0.2974
     25 C         137.6481  140.5900  161.8035 C.3     1  UNL1        0.0702
     26 H         137.9841  142.6038  161.7266 H       1  UNL1        0.1232
@<TRIPOS>BOND
     1     1     2   ar
     2     2     3   ar
     3     3     4   ar
     4     4     5   ar
     5     5    17    1
     6    17    19    1
     7    20    19    1
     8    20    21    1
     9    21    22    1
    10    22    23    1
    11    23    24    1
    12    24    25    1
    13     5     6   ar
    14     6     7   ar
    15     7    11    1
    16    11    12   ar
    17    12    13   ar
    18    13    14   ar
    19    14    15   ar
    20     7     8   ar
    21     8     9   ar
    22     9    10   ar
    23    10     1   ar
    24     9     4   ar
    25    25    20    1
    26    15    11   ar
    27    17    18    1
    28    24    26    1
    29    15    16    1
