@<TRIPOS>MOLECULE
*****
 33 37 0 0 0
SMALL
GASTEIGER

@<TRIPOS>ATOM
      1 C         141.5206  138.4624  159.5826 C.ar    1  UNL1        0.0839
      2 C         140.0345  138.5788  159.4158 C.ar    1  UNL1        0.0192
      3 C         139.1303  138.3927  160.5981 C.ar    1  UNL1        0.0030
      4 C         139.7121  138.0902  161.9471 C.ar    1  UNL1        0.0174
      5 C         138.8078  137.9041  163.1294 C.ar    1  UNL1       -0.0027
      6 C         139.3897  137.6016  164.4784 C.ar    1  UNL1       -0.0207
      7 C         140.8759  137.4852  164.6452 C.ar    1  UNL1       -0.0027
      8 C         141.7802  137.6713  163.4629 C.ar    1  UNL1        0.0188
      9 C         141.1983  137.9738  162.1139 C.ar    1  UNL1        0.0812
     10 N         142.1025  138.1599  160.9317 N.ar    1  UNL1       -0.2453
     11 C         143.0582  141.2205  158.7591 C.3     1  UNL1        0.0523
     12 C         143.1317  139.9162  158.0219 C.ar    1  UNL1        0.0655
     13 C         142.4249  138.6485  158.4004 C.ar    1  UNL1        0.0522
     14 C         142.7812  137.5995  157.3891 C.ar    1  UNL1        0.1232
     15 N         143.7081  138.2190  156.3856 N.ar    1  UNL1       -0.1624
     16 N         143.9248  139.6508  156.7767 N.ar    1  UNL1       -0.2145
     17 C         144.7836  140.6430  156.0501 C.ar    1  UNL1        0.1847
     18 C         144.5430  140.9202  154.5957 C.ar    1  UNL1        0.0435
     19 C         145.4019  141.9123  153.8692 C.ar    1  UNL1        0.0393
     20 C         146.5014  142.6273  154.5970 C.ar    1  UNL1        0.1537
     21 N         146.7421  142.3501  156.0515 N.ar    1  UNL1       -0.1314
     22 N         145.8832  141.3580  156.7780 N.ar    1  UNL1       -0.1273
     23 N         147.3603  143.6195  153.8705 N.pl3   1  UNL1       -0.2883
     24 C         146.8438  145.0012  153.5983 C.3     1  UNL1        0.1137
     25 C         148.7357  143.2299  153.4162 C.3     1  UNL1        0.1137
     26 C         138.4855  137.4155  165.6606 C.3     1  UNL1        0.0437
     27 C         138.0187  138.6073  166.4428 C.3     1  UNL1        0.0768
     28 N         138.9200  139.7946  166.6099 N.3     1  UNL1       -0.2737
     29 C         139.9053  140.0043  167.7213 C.3     1  UNL1        0.0721
     30 C         140.5885  141.3200  167.4932 C.3     1  UNL1        0.0187
     31 C         140.0254  141.9236  166.2406 C.3     1  UNL1        0.0174
     32 C         138.9942  140.9808  165.6948 C.3     1  UNL1        0.0576
     33 C         138.1803  141.1880  164.4520 C.3     1  UNL1        0.0173
@<TRIPOS>BOND
     1    11    12    1
     2    12    13   ar
     3    13     1    1
     4     1     2   ar
     5     2     3   ar
     6     3     4   ar
     7     4     5   ar
     8     5     6   ar
     9     6    26    1
    10    26    27    1
    11    27    28    1
    12    28    29    1
    13    29    30    1
    14    30    31    1
    15    31    32    1
    16    32    33    1
    17     6     7   ar
    18     7     8   ar
    19     8     9   ar
    20     9    10   ar
    21    13    14   ar
    22    14    15   ar
    23    15    16   ar
    24    16    17    1
    25    17    18   ar
    26    18    19   ar
    27    19    20   ar
    28    20    23    1
    29    23    24    1
    30    23    25    1
    31    20    21   ar
    32    21    22   ar
    33    16    12   ar
    34    22    17   ar
    35    10     1   ar
    36     9     4   ar
    37    32    28    1
@<TRIPOS>MOLECULE
*****
 33 37 0 0 0
SMALL
GASTEIGER

@<TRIPOS>ATOM
      1 C         141.3542  143.5066  162.9892 C.ar    1  UNL1        0.0839
      2 C         142.6302  143.9190  163.6613 C.ar    1  UNL1        0.0192
      3 C         143.1241  143.1648  164.8601 C.ar    1  UNL1        0.0030
      4 C         142.3420  141.9981  165.3867 C.ar    1  UNL1        0.0174
      5 C         142.8360  141.2439  166.5856 C.ar    1  UNL1       -0.0027
      6 C         142.0540  140.0772  167.1122 C.ar    1  UNL1       -0.0207
      7 C         140.7779  139.6649  166.4400 C.ar    1  UNL1       -0.0027
      8 C         140.2840  140.4191  165.2413 C.ar    1  UNL1        0.0188
      9 C         141.0661  141.5858  164.7146 C.ar    1  UNL1        0.0812
     10 N         140.5722  142.3400  163.5158 N.ar    1  UNL1       -0.2453
     11 C         141.9261  142.7378  159.8696 C.3     1  UNL1        0.0523
     12 C         141.1231  143.9075  160.3564 C.ar    1  UNL1        0.0655
     13 C         140.8602  144.2609  161.7903 C.ar    1  UNL1        0.0522
     14 C         140.0167  145.5010  161.8149 C.ar    1  UNL1        0.1232
     15 N         139.7582  145.9139  160.3962 N.ar    1  UNL1       -0.1624
     16 N         140.4421  144.9291  159.4948 N.ar    1  UNL1       -0.2145
     17 C         140.4444  144.9604  157.9952 C.ar    1  UNL1        0.1847
     18 C         141.3805  145.8777  157.2656 C.ar    1  UNL1        0.0435
     19 C         141.3828  145.9090  155.7659 C.ar    1  UNL1        0.0393
     20 C         140.4491  145.0230  154.9959 C.ar    1  UNL1        0.1537
     21 N         139.5130  144.1056  155.7254 N.ar    1  UNL1       -0.1314
     22 N         139.5106  144.0743  157.2251 N.ar    1  UNL1       -0.1273
     23 N         140.4514  145.0543  153.4962 N.pl3   1  UNL1       -0.2883
     24 C         141.1380  146.1732  152.7704 C.3     1  UNL1        0.1137
     25 C         139.7671  143.9667  152.7223 C.3     1  UNL1        0.1137
     26 C         142.5479  139.3230  168.3110 C.3     1  UNL1        0.0437
     27 C         142.1216  139.7399  169.6874 C.3     1  UNL1        0.0768
     28 N         141.5599  141.1120  169.9152 N.3     1  UNL1       -0.2737
     29 C         140.1110  141.4514  170.1042 C.3     1  UNL1        0.0721
     30 C         140.0041  142.9347  170.2998 C.3     1  UNL1        0.0187
     31 C         141.3869  143.5121  170.2317 C.3     1  UNL1        0.0174
     32 C         142.3484  142.3855  169.9940 C.3     1  UNL1        0.0576
     33 C         143.8370  142.5107  169.8589 C.3     1  UNL1        0.0173
@<TRIPOS>BOND
     1    11    12    1
     2    12    13   ar
     3    13     1    1
     4     1     2   ar
     5     2     3   ar
     6     3     4   ar
     7     4     5   ar
     8     5     6   ar
     9     6    26    1
    10    26    27    1
    11    27    28    1
    12    28    29    1
    13    29    30    1
    14    30    31    1
    15    31    32    1
    16    32    33    1
    17     6     7   ar
    18     7     8   ar
    19     8     9   ar
    20     9    10   ar
    21    13    14   ar
    22    14    15   ar
    23    15    16   ar
    24    16    17    1
    25    17    18   ar
    26    18    19   ar
    27    19    20   ar
    28    20    23    1
    29    23    24    1
    30    23    25    1
    31    20    21   ar
    32    21    22   ar
    33    16    12   ar
    34    22    17   ar
    35    10     1   ar
    36     9     4   ar
    37    32    28    1
@<TRIPOS>MOLECULE
*****
 33 37 0 0 0
SMALL
GASTEIGER

@<TRIPOS>ATOM
      1 C         142.0206  144.2957  161.2876 C.ar    1  UNL1        0.0839
      2 C         140.8093  145.1653  161.4507 C.ar    1  UNL1        0.0192
      3 C         140.1629  145.7842  160.2470 C.ar    1  UNL1        0.0030
      4 C         140.7278  145.5336  158.8802 C.ar    1  UNL1        0.0174
      5 C         140.0813  146.1527  157.6764 C.ar    1  UNL1       -0.0027
      6 C         140.6461  145.9021  156.3096 C.ar    1  UNL1       -0.0207
      7 C         141.8574  145.0325  156.1466 C.ar    1  UNL1       -0.0027
      8 C         142.5038  144.4135  157.3503 C.ar    1  UNL1        0.0188
      9 C         141.9390  144.6641  158.7171 C.ar    1  UNL1        0.0812
     10 N         142.5854  144.0451  159.9208 N.ar    1  UNL1       -0.2453
     11 C         140.4741  142.7802  163.7291 C.3     1  UNL1        0.0523
     12 C         141.9562  142.9800  163.6136 C.ar    1  UNL1        0.0655
     13 C         142.6671  143.6767  162.4913 C.ar    1  UNL1        0.0522
     14 C         144.1379  143.6455  162.7841 C.ar    1  UNL1        0.1232
     15 N         144.3361  142.9297  164.0873 N.ar    1  UNL1       -0.1624
     16 N         142.9877  142.5184  164.6000 N.ar    1  UNL1       -0.2145
     17 C         142.7181  141.7759  165.8751 C.ar    1  UNL1        0.1847
     18 C         143.0280  142.4161  167.1957 C.ar    1  UNL1        0.0435
     19 C         142.7584  141.6736  168.4708 C.ar    1  UNL1        0.0393
     20 C         142.1790  140.2908  168.4253 C.ar    1  UNL1        0.1537
     21 N         141.8691  139.6505  167.1047 N.ar    1  UNL1       -0.1314
     22 N         142.1387  140.3931  165.8296 N.ar    1  UNL1       -0.1273
     23 N         141.9094  139.5482  169.7004 N.pl3   1  UNL1       -0.2883
     24 C         142.8291  138.4459  170.1352 C.3     1  UNL1        0.1137
     25 C         140.7202  139.9081  170.5408 C.3     1  UNL1        0.1137
     26 C         139.9997  146.5211  155.1059 C.3     1  UNL1        0.0437
     27 C         138.8144  147.4253  155.2727 C.3     1  UNL1        0.0768
     28 N         138.9964  148.9138  155.2414 N.3     1  UNL1       -0.2737
     29 C         139.5479  149.7108  154.0965 C.3     1  UNL1        0.0721
     30 C         139.5512  151.1563  154.4970 C.3     1  UNL1        0.0187
     31 C         139.0018  151.2527  155.8894 C.3     1  UNL1        0.0174
     32 C         138.6589  149.8668  156.3495 C.3     1  UNL1        0.0576
     33 C         138.0802  149.4986  157.6835 C.3     1  UNL1        0.0173
@<TRIPOS>BOND
     1    11    12    1
     2    12    13   ar
     3    13     1    1
     4     1     2   ar
     5     2     3   ar
     6     3     4   ar
     7     4     5   ar
     8     5     6   ar
     9     6    26    1
    10    26    27    1
    11    27    28    1
    12    28    29    1
    13    29    30    1
    14    30    31    1
    15    31    32    1
    16    32    33    1
    17     6     7   ar
    18     7     8   ar
    19     8     9   ar
    20     9    10   ar
    21    13    14   ar
    22    14    15   ar
    23    15    16   ar
    24    16    17    1
    25    17    18   ar
    26    18    19   ar
    27    19    20   ar
    28    20    23    1
    29    23    24    1
    30    23    25    1
    31    20    21   ar
    32    21    22   ar
    33    16    12   ar
    34    22    17   ar
    35    10     1   ar
    36     9     4   ar
    37    32    28    1
@<TRIPOS>MOLECULE
*****
 33 37 0 0 0
SMALL
GASTEIGER

@<TRIPOS>ATOM
      1 C         139.7594  138.8834  162.5560 C.ar    1  UNL1        0.0839
      2 C         139.1606  137.6902  163.2399 C.ar    1  UNL1        0.0192
      3 C         138.9190  137.7171  164.7200 C.ar    1  UNL1        0.0030
      4 C         139.2762  138.9372  165.5162 C.ar    1  UNL1        0.0174
      5 C         139.0346  138.9640  166.9965 C.ar    1  UNL1       -0.0027
      6 C         139.3918  140.1841  167.7927 C.ar    1  UNL1       -0.0207
      7 C         139.9906  141.3772  167.1086 C.ar    1  UNL1       -0.0027
      8 C         140.2322  141.3503  165.6285 C.ar    1  UNL1        0.0188
      9 C         139.8750  140.1303  164.8323 C.ar    1  UNL1        0.0812
     10 N         140.1166  140.1034  163.3522 N.ar    1  UNL1       -0.2453
     11 C         137.6528  139.8318  160.2510 C.3     1  UNL1        0.0523
     12 C         139.0327  139.2925  160.0163 C.ar    1  UNL1        0.0655
     13 C         140.0010  138.8565  161.0757 C.ar    1  UNL1        0.0522
     14 C         141.2532  138.3891  160.3951 C.ar    1  UNL1        0.1232
     15 N         141.0589  138.5361  158.9150 N.ar    1  UNL1       -0.1624
     16 N         139.6865  139.0944  158.6809 N.ar    1  UNL1       -0.2145
     17 C         139.0752  139.4009  157.3458 C.ar    1  UNL1        0.1847
     18 C         138.7221  140.8145  156.9893 C.ar    1  UNL1        0.0435
     19 C         138.1108  141.1209  155.6543 C.ar    1  UNL1        0.0393
     20 C         137.8528  140.0138  154.6757 C.ar    1  UNL1        0.1537
     21 N         138.2059  138.6002  155.0322 N.ar    1  UNL1       -0.1314
     22 N         138.8172  138.2938  156.3672 N.ar    1  UNL1       -0.1273
     23 N         137.2415  140.3203  153.3406 N.pl3   1  UNL1       -0.2883
     24 C         136.1640  139.4351  152.7881 C.3     1  UNL1        0.1137
     25 C         137.7079  141.5120  152.5580 C.3     1  UNL1        0.1137
     26 C         139.1503  140.2109  169.2728 C.3     1  UNL1        0.0437
     27 C         140.3016  140.0667  170.2234 C.3     1  UNL1        0.0768
     28 N         141.4469  141.0337  170.1665 N.3     1  UNL1       -0.2737
     29 C         142.8932  140.6779  169.9885 C.3     1  UNL1        0.0721
     30 C         143.6872  141.9505  169.9895 C.3     1  UNL1        0.0187
     31 C         142.7315  143.0929  170.1682 C.3     1  UNL1        0.0174
     32 C         141.3470  142.5262  170.2776 C.3     1  UNL1        0.0576
     33 C         140.0843  143.3138  170.4651 C.3     1  UNL1        0.0173
@<TRIPOS>BOND
     1    11    12    1
     2    12    13   ar
     3    13     1    1
     4     1     2   ar
     5     2     3   ar
     6     3     4   ar
     7     4     5   ar
     8     5     6   ar
     9     6    26    1
    10    26    27    1
    11    27    28    1
    12    28    29    1
    13    29    30    1
    14    30    31    1
    15    31    32    1
    16    32    33    1
    17     6     7   ar
    18     7     8   ar
    19     8     9   ar
    20     9    10   ar
    21    13    14   ar
    22    14    15   ar
    23    15    16   ar
    24    16    17    1
    25    17    18   ar
    26    18    19   ar
    27    19    20   ar
    28    20    23    1
    29    23    24    1
    30    23    25    1
    31    20    21   ar
    32    21    22   ar
    33    16    12   ar
    34    22    17   ar
    35    10     1   ar
    36     9     4   ar
    37    32    28    1
@<TRIPOS>MOLECULE
*****
 33 37 0 0 0
SMALL
GASTEIGER

@<TRIPOS>ATOM
      1 C         139.3754  141.0765  163.2092 C.ar    1  UNL1        0.0839
      2 C         138.3737  140.3476  164.0549 C.ar    1  UNL1        0.0192
      3 C         138.7762  139.8049  165.3941 C.ar    1  UNL1        0.0030
      4 C         140.1804  139.9912  165.8876 C.ar    1  UNL1        0.0174
      5 C         140.5828  139.4485  167.2268 C.ar    1  UNL1       -0.0027
      6 C         141.9870  139.6347  167.7203 C.ar    1  UNL1       -0.0207
      7 C         142.9888  140.3637  166.8746 C.ar    1  UNL1       -0.0027
      8 C         142.5863  140.9063  165.5354 C.ar    1  UNL1        0.0188
      9 C         141.1821  140.7201  165.0419 C.ar    1  UNL1        0.0812
     10 N         140.7796  141.2627  163.7027 N.ar    1  UNL1       -0.2453
     11 C         139.0891  139.3574  160.4501 C.3     1  UNL1        0.0523
     12 C         138.8413  140.8290  160.6017 C.ar    1  UNL1        0.0655
     13 C         138.9729  141.6192  161.8699 C.ar    1  UNL1        0.0522
     14 C         138.6314  143.0473  161.5637 C.ar    1  UNL1        0.1232
     15 N         138.2887  143.1398  160.1063 N.ar    1  UNL1       -0.1624
     16 N         138.4185  141.7687  159.5118 N.ar    1  UNL1       -0.2145
     17 C         138.1691  141.4019  158.0789 C.ar    1  UNL1        0.1847
     18 C         138.9959  142.0214  156.9913 C.ar    1  UNL1        0.0435
     19 C         138.7465  141.6545  155.5584 C.ar    1  UNL1        0.0393
     20 C         137.6705  140.6682  155.2131 C.ar    1  UNL1        0.1537
     21 N         136.8438  140.0487  156.3006 N.ar    1  UNL1       -0.1314
     22 N         137.0931  140.4155  157.7335 N.ar    1  UNL1       -0.1273
     23 N         137.4212  140.3014  153.7802 N.pl3   1  UNL1       -0.2883
     24 C         138.5292  139.7242  152.9500 C.3     1  UNL1        0.1137
     25 C         136.0638  140.5117  153.1774 C.3     1  UNL1        0.1137
     26 C         142.3895  139.0921  169.0595 C.3     1  UNL1        0.0437
     27 C         142.0680  139.8599  170.3074 C.3     1  UNL1        0.0768
     28 N         141.5354  141.2588  170.2109 N.3     1  UNL1       -0.2737
     29 C         140.0955  141.6638  170.3244 C.3     1  UNL1        0.0721
     30 C         140.0193  143.1536  170.1676 C.3     1  UNL1        0.0187
     31 C         141.4121  143.6694  169.9573 C.3     1  UNL1        0.0174
     32 C         142.3491  142.4983  169.9841 C.3     1  UNL1        0.0576
     33 C         143.8382  142.5566  169.8139 C.3     1  UNL1        0.0173
@<TRIPOS>BOND
     1    11    12    1
     2    12    13   ar
     3    13     1    1
     4     1     2   ar
     5     2     3   ar
     6     3     4   ar
     7     4     5   ar
     8     5     6   ar
     9     6    26    1
    10    26    27    1
    11    27    28    1
    12    28    29    1
    13    29    30    1
    14    30    31    1
    15    31    32    1
    16    32    33    1
    17     6     7   ar
    18     7     8   ar
    19     8     9   ar
    20     9    10   ar
    21    13    14   ar
    22    14    15   ar
    23    15    16   ar
    24    16    17    1
    25    17    18   ar
    26    18    19   ar
    27    19    20   ar
    28    20    23    1
    29    23    24    1
    30    23    25    1
    31    20    21   ar
    32    21    22   ar
    33    16    12   ar
    34    22    17   ar
    35    10     1   ar
    36     9     4   ar
    37    32    28    1
@<TRIPOS>MOLECULE
*****
 33 37 0 0 0
SMALL
GASTEIGER

@<TRIPOS>ATOM
      1 C         141.2131  139.2530  161.5472 C.ar    1  UNL1        0.0839
      2 C         141.1660  137.8585  162.0976 C.ar    1  UNL1        0.0192
      3 C         141.4927  137.6102  163.5403 C.ar    1  UNL1        0.0030
      4 C         141.8667  138.7565  164.4326 C.ar    1  UNL1        0.0174
      5 C         142.1935  138.5081  165.8754 C.ar    1  UNL1       -0.0027
      6 C         142.5674  139.6544  166.7678 C.ar    1  UNL1       -0.0207
      7 C         142.6145  141.0490  166.2173 C.ar    1  UNL1       -0.0027
      8 C         142.2878  141.2973  164.7745 C.ar    1  UNL1        0.0188
      9 C         141.9138  140.1510  163.8822 C.ar    1  UNL1        0.0812
     10 N         141.5871  140.3993  162.4395 N.ar    1  UNL1       -0.2453
     11 C         138.2309  139.7275  160.3100 C.3     1  UNL1        0.0523
     12 C         139.5155  139.7194  159.5357 C.ar    1  UNL1        0.0655
     13 C         140.8863  139.5013  160.1043 C.ar    1  UNL1        0.0522
     14 C         141.8730  139.5751  158.9769 C.ar    1  UNL1        0.1232
     15 N         141.1119  139.8388  157.7115 N.ar    1  UNL1       -0.1624
     16 N         139.6549  139.9280  158.0569 N.ar    1  UNL1       -0.2145
     17 C         138.5341  140.1814  157.0927 C.ar    1  UNL1        0.1847
     18 C         137.7810  141.4776  157.1419 C.ar    1  UNL1        0.0435
     19 C         136.6602  141.7310  156.1777 C.ar    1  UNL1        0.0393
     20 C         136.2926  140.6880  155.1643 C.ar    1  UNL1        0.1537
     21 N         137.0458  139.3917  155.1150 N.ar    1  UNL1       -0.1314
     22 N         138.1666  139.1384  156.0792 N.ar    1  UNL1       -0.1273
     23 N         135.1719  140.9413  154.2001 N.pl3   1  UNL1       -0.2883
     24 C         133.7722  141.1232  154.7080 C.3     1  UNL1        0.1137
     25 C         135.4508  141.0128  152.7280 C.3     1  UNL1        0.1137
     26 C         142.8942  139.4061  168.2105 C.3     1  UNL1        0.0437
     27 C         141.8451  139.6104  169.2630 C.3     1  UNL1        0.0768
     28 N         141.3996  140.9978  169.6187 N.3     1  UNL1       -0.2737
     29 C         142.2815  142.2062  169.7279 C.3     1  UNL1        0.0721
     30 C         141.4209  143.3757  170.1043 C.3     1  UNL1        0.0187
     31 C         140.0071  142.8901  170.2276 C.3     1  UNL1        0.0174
     32 C         139.9939  141.4205  169.9274 C.3     1  UNL1        0.0576
     33 C         138.7869  140.5299  169.9348 C.3     1  UNL1        0.0173
@<TRIPOS>BOND
     1    11    12    1
     2    12    13   ar
     3    13     1    1
     4     1     2   ar
     5     2     3   ar
     6     3     4   ar
     7     4     5   ar
     8     5     6   ar
     9     6    26    1
    10    26    27    1
    11    27    28    1
    12    28    29    1
    13    29    30    1
    14    30    31    1
    15    31    32    1
    16    32    33    1
    17     6     7   ar
    18     7     8   ar
    19     8     9   ar
    20     9    10   ar
    21    13    14   ar
    22    14    15   ar
    23    15    16   ar
    24    16    17    1
    25    17    18   ar
    26    18    19   ar
    27    19    20   ar
    28    20    23    1
    29    23    24    1
    30    23    25    1
    31    20    21   ar
    32    21    22   ar
    33    16    12   ar
    34    22    17   ar
    35    10     1   ar
    36     9     4   ar
    37    32    28    1
@<TRIPOS>MOLECULE
*****
 33 37 0 0 0
SMALL
GASTEIGER

@<TRIPOS>ATOM
      1 C         142.0176  138.3702  159.1237 C.ar    1  UNL1        0.0839
      2 C         140.6064  138.5041  158.6332 C.ar    1  UNL1        0.0192
      3 C         140.1983  137.8642  157.3394 C.ar    1  UNL1        0.0030
      4 C         141.2014  137.0904  156.5362 C.ar    1  UNL1        0.0174
      5 C         140.7932  136.4504  155.2424 C.ar    1  UNL1       -0.0027
      6 C         141.7962  135.6766  154.4392 C.ar    1  UNL1       -0.0207
      7 C         143.2074  135.5428  154.9298 C.ar    1  UNL1       -0.0027
      8 C         143.6155  136.1827  156.2236 C.ar    1  UNL1        0.0188
      9 C         142.6125  136.9565  157.0268 C.ar    1  UNL1        0.0812
     10 N         143.0206  137.5964  158.3205 N.ar    1  UNL1       -0.2453
     11 C         140.6814  137.8076  162.0474 C.3     1  UNL1        0.0523
     12 C         141.8116  138.7516  161.7614 C.ar    1  UNL1        0.0655
     13 C         142.4257  139.0102  160.4176 C.ar    1  UNL1        0.0522
     14 C         143.5197  140.0211  160.5947 C.ar    1  UNL1        0.1232
     15 N         143.5816  140.3872  162.0480 N.ar    1  UNL1       -0.1624
     16 N         142.5259  139.6026  162.7691 N.ar    1  UNL1       -0.2145
     17 C         142.2356  139.6591  164.2397 C.ar    1  UNL1        0.1847
     18 C         143.1225  138.9336  165.2077 C.ar    1  UNL1        0.0435
     19 C         142.8322  138.9901  166.6782 C.ar    1  UNL1        0.0393
     20 C         141.6550  139.7722  167.1807 C.ar    1  UNL1        0.1537
     21 N         140.7681  140.4977  166.2127 N.ar    1  UNL1       -0.1314
     22 N         141.0584  140.4412  164.7422 N.ar    1  UNL1       -0.1273
     23 N         141.3647  139.8287  168.6513 N.pl3   1  UNL1       -0.2883
     24 C         142.4017  139.3811  169.6382 C.3     1  UNL1        0.1137
     25 C         140.0372  140.3328  169.1348 C.3     1  UNL1        0.1137
     26 C         141.3881  135.0367  153.1454 C.3     1  UNL1        0.0437
     27 C         141.8835  133.6639  152.7986 C.3     1  UNL1        0.0768
     28 N         141.0882  132.4565  153.1981 N.3     1  UNL1       -0.2737
     29 C         140.1133  131.7163  152.3311 C.3     1  UNL1        0.0721
     30 C         139.5508  130.5796  153.1320 C.3     1  UNL1        0.0187
     31 C         140.1781  130.6173  154.4941 C.3     1  UNL1        0.0174
     32 C         141.1283  131.7772  154.5349 C.3     1  UNL1        0.0576
     33 C         141.9706  132.1861  155.7068 C.3     1  UNL1        0.0173
@<TRIPOS>BOND
     1    11    12    1
     2    12    13   ar
     3    13     1    1
     4     1     2   ar
     5     2     3   ar
     6     3     4   ar
     7     4     5   ar
     8     5     6   ar
     9     6    26    1
    10    26    27    1
    11    27    28    1
    12    28    29    1
    13    29    30    1
    14    30    31    1
    15    31    32    1
    16    32    33    1
    17     6     7   ar
    18     7     8   ar
    19     8     9   ar
    20     9    10   ar
    21    13    14   ar
    22    14    15   ar
    23    15    16   ar
    24    16    17    1
    25    17    18   ar
    26    18    19   ar
    27    19    20   ar
    28    20    23    1
    29    23    24    1
    30    23    25    1
    31    20    21   ar
    32    21    22   ar
    33    16    12   ar
    34    22    17   ar
    35    10     1   ar
    36     9     4   ar
    37    32    28    1
@<TRIPOS>MOLECULE
*****
 33 37 0 0 0
SMALL
GASTEIGER

@<TRIPOS>ATOM
      1 C         138.9495  142.4014  159.1158 C.ar    1  UNL1        0.0839
      2 C         139.6902  141.1076  159.2812 C.ar    1  UNL1        0.0192
      3 C         139.7688  140.4555  160.6297 C.ar    1  UNL1        0.0030
      4 C         139.1067  141.0972  161.8128 C.ar    1  UNL1        0.0174
      5 C         139.1853  140.4450  163.1614 C.ar    1  UNL1       -0.0027
      6 C         138.5232  141.0867  164.3445 C.ar    1  UNL1       -0.0207
      7 C         137.7824  142.3805  164.1791 C.ar    1  UNL1       -0.0027
      8 C         137.7039  143.0326  162.8306 C.ar    1  UNL1        0.0188
      9 C         138.3660  142.3909  161.6474 C.ar    1  UNL1        0.0812
     10 N         138.2874  143.0430  160.2989 N.ar    1  UNL1       -0.2453
     11 C         140.3189  145.2420  158.2761 C.3     1  UNL1        0.0523
     12 C         139.5004  144.3593  157.3813 C.ar    1  UNL1        0.0655
     13 C         138.8709  143.0535  157.7672 C.ar    1  UNL1        0.0522
     14 C         138.1491  142.5145  156.5679 C.ar    1  UNL1        0.1232
     15 N         138.3324  143.4871  155.4407 N.ar    1  UNL1       -0.1624
     16 N         139.1676  144.6272  155.9434 N.ar    1  UNL1       -0.2145
     17 C         139.5949  145.8250  155.1480 C.ar    1  UNL1        0.1847
     18 C         138.9897  147.1680  155.4309 C.ar    1  UNL1        0.0435
     19 C         139.4170  148.3658  154.6354 C.ar    1  UNL1        0.0393
     20 C         140.4494  148.2205  153.5570 C.ar    1  UNL1        0.1537
     21 N         141.0546  146.8774  153.2741 N.ar    1  UNL1       -0.1314
     22 N         140.6273  145.6797  154.0695 N.ar    1  UNL1       -0.1273
     23 N         140.8767  149.4182  152.7615 N.pl3   1  UNL1       -0.2883
     24 C         139.9963  150.6312  152.7007 C.3     1  UNL1        0.1137
     25 C         142.1844  149.4030  152.0269 C.3     1  UNL1        0.1137
     26 C         138.6018  140.4346  165.6930 C.3     1  UNL1        0.0437
     27 C         139.2466  139.0880  165.8386 C.3     1  UNL1        0.0768
     28 N         140.7370  138.9802  165.9681 N.3     1  UNL1       -0.2737
     29 C         141.5822  139.6498  167.0109 C.3     1  UNL1        0.0721
     30 C         143.0116  139.2674  166.7648 C.3     1  UNL1        0.0187
     31 C         143.0498  138.3614  165.5699 C.3     1  UNL1        0.0174
     32 C         141.6441  138.1840  165.0775 C.3     1  UNL1        0.0576
     33 C         141.2200  137.3557  163.9011 C.3     1  UNL1        0.0173
@<TRIPOS>BOND
     1    11    12    1
     2    12    13   ar
     3    13     1    1
     4     1     2   ar
     5     2     3   ar
     6     3     4   ar
     7     4     5   ar
     8     5     6   ar
     9     6    26    1
    10    26    27    1
    11    27    28    1
    12    28    29    1
    13    29    30    1
    14    30    31    1
    15    31    32    1
    16    32    33    1
    17     6     7   ar
    18     7     8   ar
    19     8     9   ar
    20     9    10   ar
    21    13    14   ar
    22    14    15   ar
    23    15    16   ar
    24    16    17    1
    25    17    18   ar
    26    18    19   ar
    27    19    20   ar
    28    20    23    1
    29    23    24    1
    30    23    25    1
    31    20    21   ar
    32    21    22   ar
    33    16    12   ar
    34    22    17   ar
    35    10     1   ar
    36     9     4   ar
    37    32    28    1
@<TRIPOS>MOLECULE
*****
 33 37 0 0 0
SMALL
GASTEIGER

@<TRIPOS>ATOM
      1 C         140.6541  139.6032  162.1139 C.ar    1  UNL1        0.0839
      2 C         140.3132  138.2496  162.6630 C.ar    1  UNL1        0.0192
      3 C         139.9836  138.0916  164.1177 C.ar    1  UNL1        0.0030
      4 C         139.9950  139.2872  165.0235 C.ar    1  UNL1        0.0174
      5 C         139.6654  139.1291  166.4783 C.ar    1  UNL1       -0.0027
      6 C         139.6767  140.3247  167.3840 C.ar    1  UNL1       -0.0207
      7 C         140.0176  141.6784  166.8350 C.ar    1  UNL1       -0.0027
      8 C         140.3471  141.8364  165.3802 C.ar    1  UNL1        0.0188
      9 C         140.3358  140.6408  164.4744 C.ar    1  UNL1        0.0812
     10 N         140.6654  140.7988  163.0197 N.ar    1  UNL1       -0.2453
     11 C         143.4726  140.7072  160.8946 C.3     1  UNL1        0.0523
     12 C         142.2792  140.2687  160.0987 C.ar    1  UNL1        0.0655
     13 C         140.9837  139.7613  160.6591 C.ar    1  UNL1        0.0522
     14 C         140.0756  139.4397  159.5094 C.ar    1  UNL1        0.1232
     15 N         140.8099  139.7483  158.2383 N.ar    1  UNL1       -0.1624
     16 N         142.1719  140.2607  158.6026 N.ar    1  UNL1       -0.2145
     17 C         143.2390  140.6898  157.6397 C.ar    1  UNL1        0.1847
     18 C         143.1301  142.0120  156.9398 C.ar    1  UNL1        0.0435
     19 C         144.1973  142.4410  155.9770 C.ar    1  UNL1        0.0393
     20 C         145.3733  141.5478  155.7140 C.ar    1  UNL1        0.1537
     21 N         145.4822  140.2256  156.4140 N.ar    1  UNL1       -0.1314
     22 N         144.4151  139.7966  157.3768 N.ar    1  UNL1       -0.1273
     23 N         146.4405  141.9769  154.7512 N.pl3   1  UNL1       -0.2883
     24 C         146.0620  142.6187  153.4493 C.3     1  UNL1        0.1137
     25 C         147.8861  141.7641  155.0903 C.3     1  UNL1        0.1137
     26 C         139.3471  140.1667  168.8388 C.3     1  UNL1        0.0437
     27 C         140.4488  140.0105  169.8448 C.3     1  UNL1        0.0768
     28 N         141.5317  141.0442  169.9377 N.3     1  UNL1       -0.2737
     29 C         143.0012  140.8001  169.7608 C.3     1  UNL1        0.0721
     30 C         143.7130  142.1086  169.9377 C.3     1  UNL1        0.0187
     31 C         142.6834  143.1613  170.2239 C.3     1  UNL1        0.0174
     32 C         141.3354  142.5035  170.2239 C.3     1  UNL1        0.0576
     33 C         140.0216  143.1852  170.4673 C.3     1  UNL1        0.0173
@<TRIPOS>BOND
     1    11    12    1
     2    12    13   ar
     3    13     1    1
     4     1     2   ar
     5     2     3   ar
     6     3     4   ar
     7     4     5   ar
     8     5     6   ar
     9     6    26    1
    10    26    27    1
    11    27    28    1
    12    28    29    1
    13    29    30    1
    14    30    31    1
    15    31    32    1
    16    32    33    1
    17     6     7   ar
    18     7     8   ar
    19     8     9   ar
    20     9    10   ar
    21    13    14   ar
    22    14    15   ar
    23    15    16   ar
    24    16    17    1
    25    17    18   ar
    26    18    19   ar
    27    19    20   ar
    28    20    23    1
    29    23    24    1
    30    23    25    1
    31    20    21   ar
    32    21    22   ar
    33    16    12   ar
    34    22    17   ar
    35    10     1   ar
    36     9     4   ar
    37    32    28    1
