@<TRIPOS>MOLECULE
*****
 28 32 0 0 0
SMALL
GASTEIGER

@<TRIPOS>ATOM
      1 N         142.1184  139.0411  164.7272 N.3     1  UNL1       -0.2700
      2 C         140.8339  138.3757  165.1244 C.3     1  UNL1        0.0897
      3 C         139.7919  138.0777  164.0875 C.3     1  UNL1        0.0897
      4 N         140.0340  138.4449  162.6535 N.3     1  UNL1       -0.2700
      5 C         141.3184  139.1103  162.2563 C.3     1  UNL1        0.0897
      6 C         142.3605  139.4083  163.2931 C.3     1  UNL1        0.0897
      7 C         143.1605  139.3391  165.7640 C.3     1  UNL1        0.0769
      8 C         142.8731  139.0782  167.2129 C.3     1  UNL1        0.0437
      9 C         141.8359  141.4500  167.4342 C.ar    1  UNL1       -0.0025
     10 C         141.1746  142.5060  168.2696 C.ar    1  UNL1        0.0238
     11 C         140.8893  142.2460  169.7190 C.ar    1  UNL1        0.1431
     12 N         140.2534  143.0896  170.7838 N.ar    1  UNL1       -0.0483
     13 O         140.2364  142.2952  172.0560 O.2     1  UNL1       -0.2415
     14 N         140.8617  140.9605  171.7775 N.ar    1  UNL1       -0.0483
     15 C         141.2653  140.9301  170.3331 C.ar    1  UNL1        0.1428
     16 C         141.9265  139.8742  169.4977 C.ar    1  UNL1        0.0199
     17 C         142.2118  140.1342  168.0483 C.ar    1  UNL1       -0.0191
     18 C         138.9919  138.1469  161.6166 C.3     1  UNL1        0.0769
     19 C         137.8035  139.0499  161.4665 C.3     1  UNL1        0.0437
     20 C         137.9258  140.5100  161.7875 C.ar    1  UNL1       -0.0191
     21 C         137.3749  141.0432  163.0768 C.ar    1  UNL1       -0.0025
     22 C         137.4972  142.5033  163.3978 C.ar    1  UNL1        0.0238
     23 C         138.1704  143.4302  162.4295 C.ar    1  UNL1        0.1431
     24 N         138.4370  144.9058  162.4725 N.ar    1  UNL1       -0.0483
     25 O         139.1526  145.2845  161.2099 O.2     1  UNL1       -0.2415
     26 N         139.3283  144.0432  160.3865 N.ar    1  UNL1       -0.0483
     27 C         138.7213  142.8972  161.1403 C.ar    1  UNL1        0.1428
     28 C         138.5991  141.4370  160.8192 C.ar    1  UNL1        0.0199
@<TRIPOS>BOND
     1     9    10   ar
     2    10    11   ar
     3    11    12   ar
     4    12    13   ar
     5    13    14   ar
     6    14    15   ar
     7    15    16   ar
     8    16    17   ar
     9    17     8    1
    10     8     7    1
    11     7     1    1
    12     1     2    1
    13     2     3    1
    14     3     4    1
    15     4    18    1
    16    18    19    1
    17    19    20    1
    18    20    21   ar
    19    21    22   ar
    20    22    23   ar
    21    23    24   ar
    22    24    25   ar
    23    25    26   ar
    24    26    27   ar
    25    27    28   ar
    26     4     5    1
    27     5     6    1
    28    17     9   ar
    29     6     1    1
    30    15    11   ar
    31    28    20   ar
    32    27    23   ar
@<TRIPOS>MOLECULE
*****
 28 32 0 0 0
SMALL
GASTEIGER

@<TRIPOS>ATOM
      1 N         139.4417  139.0646  164.6305 N.3     1  UNL1       -0.2700
      2 C         139.2962  139.4681  163.1931 C.3     1  UNL1        0.0897
      3 C         140.3233  139.0411  162.1867 C.3     1  UNL1        0.0897
      4 N         141.4958  138.2108  162.6176 N.3     1  UNL1       -0.2700
      5 C         141.6413  137.8074  164.0550 C.3     1  UNL1        0.0897
      6 C         140.6143  138.2342  165.0614 C.3     1  UNL1        0.0897
      7 C         138.4147  139.4914  165.6370 C.3     1  UNL1        0.0769
      8 C         138.6518  139.2512  167.0985 C.3     1  UNL1        0.0437
      9 C         140.1417  141.3764  167.2154 C.ar    1  UNL1       -0.0025
     10 C         140.9369  142.3630  168.0183 C.ar    1  UNL1        0.0238
     11 C         141.0371  142.2108  169.5072 C.ar    1  UNL1        0.1431
     12 N         141.7434  143.0208  170.5535 N.ar    1  UNL1       -0.0483
     13 O         141.4851  142.3828  171.8862 O.2     1  UNL1       -0.2415
     14 N         140.6191  141.1784  171.6635 N.ar    1  UNL1       -0.0483
     15 C         140.3422  141.0721  170.1931 C.ar    1  UNL1        0.1428
     16 C         139.5471  140.0856  169.3903 C.ar    1  UNL1        0.0199
     17 C         139.4469  140.2378  167.9014 C.ar    1  UNL1       -0.0191
     18 C         142.5229  137.7839  161.6112 C.3     1  UNL1        0.0769
     19 C         143.8844  138.4134  161.6159 C.3     1  UNL1        0.0437
     20 C         144.0670  139.8015  162.1542 C.ar    1  UNL1       -0.0191
     21 C         144.7209  140.0086  163.4882 C.ar    1  UNL1       -0.0025
     22 C         144.9035  141.3967  164.0265 C.ar    1  UNL1        0.0238
     23 C         144.4322  142.5777  163.2308 C.ar    1  UNL1        0.1431
     24 N         144.4757  144.0525  163.5018 N.ar    1  UNL1       -0.0483
     25 O         143.8486  144.7568  162.3353 O.2     1  UNL1       -0.2415
     26 N         143.4176  143.7175  161.3434 N.ar    1  UNL1       -0.0483
     27 C         143.7782  142.3708  161.8969 C.ar    1  UNL1        0.1428
     28 C         143.5956  140.9826  161.3585 C.ar    1  UNL1        0.0199
@<TRIPOS>BOND
     1     9    10   ar
     2    10    11   ar
     3    11    12   ar
     4    12    13   ar
     5    13    14   ar
     6    14    15   ar
     7    15    16   ar
     8    16    17   ar
     9    17     8    1
    10     8     7    1
    11     7     1    1
    12     1     2    1
    13     2     3    1
    14     3     4    1
    15     4    18    1
    16    18    19    1
    17    19    20    1
    18    20    21   ar
    19    21    22   ar
    20    22    23   ar
    21    23    24   ar
    22    24    25   ar
    23    25    26   ar
    24    26    27   ar
    25    27    28   ar
    26     4     5    1
    27     5     6    1
    28    17     9   ar
    29     6     1    1
    30    15    11   ar
    31    28    20   ar
    32    27    23   ar
@<TRIPOS>MOLECULE
*****
 28 32 0 0 0
SMALL
GASTEIGER

@<TRIPOS>ATOM
      1 N         139.3056  138.1268  162.8994 N.3     1  UNL1       -0.2700
      2 C         140.6265  137.9032  162.2244 C.3     1  UNL1        0.0897
      3 C         141.8960  137.9676  163.0208 C.3     1  UNL1        0.0897
      4 N         141.8448  138.2555  164.4919 N.3     1  UNL1       -0.2700
      5 C         140.5240  138.4791  165.1668 C.3     1  UNL1        0.0897
      6 C         139.2544  138.4147  164.3706 C.3     1  UNL1        0.0897
      7 C         138.0361  138.0624  162.1031 C.3     1  UNL1        0.0769
      8 C         137.6964  139.1636  161.1429 C.3     1  UNL1        0.0437
      9 C         137.3197  141.0690  162.8685 C.ar    1  UNL1       -0.0025
     10 C         137.4896  142.5015  163.2798 C.ar    1  UNL1        0.0238
     11 C         138.2059  143.4611  162.3765 C.ar    1  UNL1        0.1431
     12 N         138.5236  144.9208  162.5125 N.ar    1  UNL1       -0.0483
     13 O         139.2665  145.3500  161.2821 O.2     1  UNL1       -0.2415
     14 N         139.4079  144.1557  160.3857 N.ar    1  UNL1       -0.0483
     15 C         138.7524  142.9883  161.0621 C.ar    1  UNL1        0.1428
     16 C         138.5825  141.5558  160.6509 C.ar    1  UNL1        0.0199
     17 C         137.8662  140.5961  161.5542 C.ar    1  UNL1       -0.0191
     18 C         143.1144  138.3199  165.2882 C.3     1  UNL1        0.0769
     19 C         144.2369  139.2078  164.8394 C.3     1  UNL1        0.0437
     20 C         144.0137  140.6841  164.6953 C.ar    1  UNL1       -0.0191
     21 C         143.3384  141.4512  165.7932 C.ar    1  UNL1       -0.0025
     22 C         143.1152  142.9275  165.6492 C.ar    1  UNL1        0.0238
     23 C         143.5674  143.6367  164.4071 C.ar    1  UNL1        0.1431
     24 N         143.4844  145.0738  163.9853 N.ar    1  UNL1       -0.0483
     25 O         144.1085  145.1949  162.6267 O.2     1  UNL1       -0.2415
     26 N         144.5771  143.8327  162.2088 N.ar    1  UNL1       -0.0483
     27 C         144.2427  142.8697  163.3092 C.ar    1  UNL1        0.1428
     28 C         144.4659  141.3933  163.4532 C.ar    1  UNL1        0.0199
@<TRIPOS>BOND
     1     9    10   ar
     2    10    11   ar
     3    11    12   ar
     4    12    13   ar
     5    13    14   ar
     6    14    15   ar
     7    15    16   ar
     8    16    17   ar
     9    17     8    1
    10     8     7    1
    11     7     1    1
    12     1     2    1
    13     2     3    1
    14     3     4    1
    15     4    18    1
    16    18    19    1
    17    19    20    1
    18    20    21   ar
    19    21    22   ar
    20    22    23   ar
    21    23    24   ar
    22    24    25   ar
    23    25    26   ar
    24    26    27   ar
    25    27    28   ar
    26     4     5    1
    27     5     6    1
    28    17     9   ar
    29     6     1    1
    30    15    11   ar
    31    28    20   ar
    32    27    23   ar
@<TRIPOS>MOLECULE
*****
 28 32 0 0 0
SMALL
GASTEIGER

@<TRIPOS>ATOM
      1 N         139.9090  138.4983  162.9554 N.3     1  UNL1       -0.2700
      2 C         139.6816  138.3558  164.4313 C.3     1  UNL1        0.0897
      3 C         140.7470  138.7792  165.3985 C.3     1  UNL1        0.0897
      4 N         142.0397  139.3451  164.8901 N.3     1  UNL1       -0.2700
      5 C         142.2671  139.4876  163.4143 C.3     1  UNL1        0.0897
      6 C         141.2018  139.0642  162.4470 C.3     1  UNL1        0.0897
      7 C         138.8437  138.0749  161.9881 C.3     1  UNL1        0.0769
      8 C         137.7277  139.0157  161.6424 C.3     1  UNL1        0.0437
      9 C         137.3580  141.0912  163.1608 C.ar    1  UNL1       -0.0025
     10 C         137.5127  142.5622  163.4106 C.ar    1  UNL1        0.0238
     11 C         138.1918  143.4286  162.3917 C.ar    1  UNL1        0.1431
     12 N         138.4875  144.8988  162.3614 N.ar    1  UNL1       -0.0483
     13 O         139.1947  145.2029  161.0740 O.2     1  UNL1       -0.2415
     14 N         139.3361  143.9206  160.3086 N.ar    1  UNL1       -0.0483
     15 C         138.7162  142.8240  161.1230 C.ar    1  UNL1        0.1428
     16 C         138.5615  141.3531  160.8733 C.ar    1  UNL1        0.0199
     17 C         137.8824  140.4867  161.8922 C.ar    1  UNL1       -0.0191
     18 C         143.1051  139.7685  165.8575 C.3     1  UNL1        0.0769
     19 C         143.0304  141.1157  166.5129 C.3     1  UNL1        0.0437
     20 C         142.4052  141.2562  167.8691 C.ar    1  UNL1       -0.0191
     21 C         142.6873  140.2384  168.9342 C.ar    1  UNL1       -0.0025
     22 C         142.0620  140.3790  170.2904 C.ar    1  UNL1        0.0238
     23 C         141.1546  141.5374  170.5815 C.ar    1  UNL1        0.1431
     24 N         140.4002  141.9361  171.8152 N.ar    1  UNL1       -0.0483
     25 O         139.6519  143.2004  171.5125 O.2     1  UNL1       -0.2415
     26 N         139.9437  143.5830  170.0919 N.ar    1  UNL1       -0.0483
     27 C         140.8725  142.5552  169.5165 C.ar    1  UNL1        0.1428
     28 C         141.4977  142.4147  168.1602 C.ar    1  UNL1        0.0199
@<TRIPOS>BOND
     1     9    10   ar
     2    10    11   ar
     3    11    12   ar
     4    12    13   ar
     5    13    14   ar
     6    14    15   ar
     7    15    16   ar
     8    16    17   ar
     9    17     8    1
    10     8     7    1
    11     7     1    1
    12     1     2    1
    13     2     3    1
    14     3     4    1
    15     4    18    1
    16    18    19    1
    17    19    20    1
    18    20    21   ar
    19    21    22   ar
    20    22    23   ar
    21    23    24   ar
    22    24    25   ar
    23    25    26   ar
    24    26    27   ar
    25    27    28   ar
    26     4     5    1
    27     5     6    1
    28    17     9   ar
    29     6     1    1
    30    15    11   ar
    31    28    20   ar
    32    27    23   ar
@<TRIPOS>MOLECULE
*****
 28 32 0 0 0
SMALL
GASTEIGER

@<TRIPOS>ATOM
      1 N         143.5113  140.6489  162.9621 N.3     1  UNL1       -0.2700
      2 C         142.1732  140.3306  162.3634 C.3     1  UNL1        0.0897
      3 C         141.1055  139.6988  163.2066 C.3     1  UNL1        0.0897
      4 N         141.3758  139.3852  164.6482 N.3     1  UNL1       -0.2700
      5 C         142.7138  139.7034  165.2469 C.3     1  UNL1        0.0897
      6 C         143.7816  140.3353  164.4039 C.3     1  UNL1        0.0897
      7 C         144.5790  141.2807  162.1191 C.3     1  UNL1        0.0769
      8 C         144.7456  142.7714  162.1129 C.3     1  UNL1        0.0437
      9 C         143.2469  144.3923  163.4828 C.ar    1  UNL1       -0.0025
     10 C         142.0428  145.2819  163.5767 C.ar    1  UNL1        0.0238
     11 C         141.1332  145.4400  162.3944 C.ar    1  UNL1        0.1431
     12 N         139.8816  146.2413  162.1912 N.ar    1  UNL1       -0.0483
     13 O         139.4026  146.0052  160.7895 O.2     1  UNL1       -0.2415
     14 N         140.3581  145.0579  160.1265 N.ar    1  UNL1       -0.0483
     15 C         141.4278  144.7086  161.1184 C.ar    1  UNL1        0.1428
     16 C         142.6319  143.8191  161.0245 C.ar    1  UNL1        0.0199
     17 C         143.5414  143.6610  162.2068 C.ar    1  UNL1       -0.0191
     18 C         140.3081  138.7534  165.4914 C.3     1  UNL1        0.0769
     19 C         139.2970  139.6135  166.1898 C.3     1  UNL1        0.0437
     20 C         139.7263  140.5211  167.3043 C.ar    1  UNL1       -0.0191
     21 C         140.2296  141.9003  166.9968 C.ar    1  UNL1       -0.0025
     22 C         140.6589  142.8078  168.1113 C.ar    1  UNL1        0.0238
     23 C         140.5850  142.3361  169.5332 C.ar    1  UNL1        0.1431
     24 N         140.9356  143.0016  170.8310 N.ar    1  UNL1       -0.0483
     25 O         140.6491  142.0338  171.9406 O.2     1  UNL1       -0.2415
     26 N         140.1214  140.7701  171.3286 N.ar    1  UNL1       -0.0483
     27 C         140.0818  140.9570  169.8408 C.ar    1  UNL1        0.1428
     28 C         139.6524  140.0494  168.7263 C.ar    1  UNL1        0.0199
@<TRIPOS>BOND
     1     9    10   ar
     2    10    11   ar
     3    11    12   ar
     4    12    13   ar
     5    13    14   ar
     6    14    15   ar
     7    15    16   ar
     8    16    17   ar
     9    17     8    1
    10     8     7    1
    11     7     1    1
    12     1     2    1
    13     2     3    1
    14     3     4    1
    15     4    18    1
    16    18    19    1
    17    19    20    1
    18    20    21   ar
    19    21    22   ar
    20    22    23   ar
    21    23    24   ar
    22    24    25   ar
    23    25    26   ar
    24    26    27   ar
    25    27    28   ar
    26     4     5    1
    27     5     6    1
    28    17     9   ar
    29     6     1    1
    30    15    11   ar
    31    28    20   ar
    32    27    23   ar
@<TRIPOS>MOLECULE
*****
 28 32 0 0 0
SMALL
GASTEIGER

@<TRIPOS>ATOM
      1 N         139.2824  138.2037  163.0725 N.3     1  UNL1       -0.2700
      2 C         138.8926  138.5561  164.4775 C.3     1  UNL1        0.0897
      3 C         139.9484  138.9123  165.4817 C.3     1  UNL1        0.0897
      4 N         141.3938  138.9161  165.0811 N.3     1  UNL1       -0.2700
      5 C         141.7836  138.5637  163.6761 C.3     1  UNL1        0.0897
      6 C         140.7280  138.2075  162.6718 C.3     1  UNL1        0.0897
      7 C         138.2268  137.8475  162.0681 C.3     1  UNL1        0.0769
      8 C         137.4227  138.9290  161.4096 C.3     1  UNL1        0.0437
      9 C         139.0231  140.6478  160.2985 C.ar    1  UNL1       -0.0025
     10 C         139.5726  142.0406  160.2068 C.ar    1  UNL1        0.0238
     11 C         139.0712  143.1072  161.1345 C.ar    1  UNL1        0.1431
     12 N         139.4223  144.5584  161.2786 N.ar    1  UNL1       -0.0483
     13 O         138.5884  145.1292  162.3870 O.2     1  UNL1       -0.2415
     14 N         137.7218  144.0309  162.9281 N.ar    1  UNL1       -0.0483
     15 C         138.0202  142.7812  162.1539 C.ar    1  UNL1        0.1428
     16 C         137.4708  141.3885  162.2456 C.ar    1  UNL1        0.0199
     17 C         137.9723  140.3218  161.3179 C.ar    1  UNL1       -0.0191
     18 C         142.4496  139.2723  166.0854 C.3     1  UNL1        0.0769
     19 C         142.6926  140.7093  166.4403 C.3     1  UNL1        0.0437
     20 C         141.9553  141.3334  167.5879 C.ar    1  UNL1       -0.0191
     21 C         141.0179  142.4786  167.3433 C.ar    1  UNL1       -0.0025
     22 C         140.2807  143.1026  168.4909 C.ar    1  UNL1        0.0238
     23 C         140.4809  142.5815  169.8831 C.ar    1  UNL1        0.1431
     24 N         139.8963  142.9919  171.2022 N.ar    1  UNL1       -0.0483
     25 O         140.4724  142.1004  172.2621 O.2     1  UNL1       -0.2415
     26 N         141.4130  141.1391  171.5981 N.ar    1  UNL1       -0.0483
     27 C         141.4182  141.4364  170.1279 C.ar    1  UNL1        0.1428
     28 C         142.1555  140.8122  168.9803 C.ar    1  UNL1        0.0199
@<TRIPOS>BOND
     1     9    10   ar
     2    10    11   ar
     3    11    12   ar
     4    12    13   ar
     5    13    14   ar
     6    14    15   ar
     7    15    16   ar
     8    16    17   ar
     9    17     8    1
    10     8     7    1
    11     7     1    1
    12     1     2    1
    13     2     3    1
    14     3     4    1
    15     4    18    1
    16    18    19    1
    17    19    20    1
    18    20    21   ar
    19    21    22   ar
    20    22    23   ar
    21    23    24   ar
    22    24    25   ar
    23    25    26   ar
    24    26    27   ar
    25    27    28   ar
    26     4     5    1
    27     5     6    1
    28    17     9   ar
    29     6     1    1
    30    15    11   ar
    31    28    20   ar
    32    27    23   ar
@<TRIPOS>MOLECULE
*****
 28 32 0 0 0
SMALL
GASTEIGER

@<TRIPOS>ATOM
      1 N         140.7035  138.7576  165.1134 N.3     1  UNL1       -0.2700
      2 C         141.2664  138.4513  163.7571 C.3     1  UNL1        0.0897
      3 C         142.7140  138.7176  163.4683 C.3     1  UNL1        0.0897
      4 N         143.5987  139.2903  164.5356 N.3     1  UNL1       -0.2700
      5 C         143.0359  139.5966  165.8918 C.3     1  UNL1        0.0897
      6 C         141.5883  139.3303  166.1807 C.3     1  UNL1        0.0897
      7 C         139.2559  138.4913  165.4022 C.3     1  UNL1        0.0769
      8 C         138.3136  139.6359  165.6298 C.3     1  UNL1        0.0437
      9 C         137.6796  140.6623  163.3288 C.ar    1  UNL1       -0.0025
     10 C         137.6724  141.8270  162.3834 C.ar    1  UNL1        0.0238
     11 C         138.2918  143.1300  162.7940 C.ar    1  UNL1        0.1431
     12 N         138.4342  144.4422  162.0814 N.ar    1  UNL1       -0.0483
     13 O         139.1490  145.3915  162.9968 O.2     1  UNL1       -0.2415
     14 N         139.4482  144.6660  164.2751 N.ar    1  UNL1       -0.0483
     15 C         138.9185  143.2683  164.1498 C.ar    1  UNL1        0.1428
     16 C         138.9257  142.1036  165.0950 C.ar    1  UNL1        0.0199
     17 C         138.3063  140.8006  164.6845 C.ar    1  UNL1       -0.0191
     18 C         145.0464  139.5566  164.2468 C.3     1  UNL1        0.0769
     19 C         145.5218  140.9630  164.0321 C.3     1  UNL1        0.0437
     20 C         144.6201  141.9680  163.3789 C.ar    1  UNL1       -0.0191
     21 C         143.7904  142.8907  164.2216 C.ar    1  UNL1       -0.0025
     22 C         142.8887  143.8958  163.5684 C.ar    1  UNL1        0.0238
     23 C         142.8165  143.9781  162.0724 C.ar    1  UNL1        0.1431
     24 N         142.0254  144.8603  161.1527 N.ar    1  UNL1       -0.0483
     25 O         142.3661  144.4828  159.7415 O.2     1  UNL1       -0.2415
     26 N         143.3677  143.3674  159.7890 N.ar    1  UNL1       -0.0483
     27 C         143.6461  143.0554  161.2296 C.ar    1  UNL1        0.1428
     28 C         144.5479  142.0503  161.8828 C.ar    1  UNL1        0.0199
@<TRIPOS>BOND
     1     9    10   ar
     2    10    11   ar
     3    11    12   ar
     4    12    13   ar
     5    13    14   ar
     6    14    15   ar
     7    15    16   ar
     8    16    17   ar
     9    17     8    1
    10     8     7    1
    11     7     1    1
    12     1     2    1
    13     2     3    1
    14     3     4    1
    15     4    18    1
    16    18    19    1
    17    19    20    1
    18    20    21   ar
    19    21    22   ar
    20    22    23   ar
    21    23    24   ar
    22    24    25   ar
    23    25    26   ar
    24    26    27   ar
    25    27    28   ar
    26     4     5    1
    27     5     6    1
    28    17     9   ar
    29     6     1    1
    30    15    11   ar
    31    28    20   ar
    32    27    23   ar
@<TRIPOS>MOLECULE
*****
 28 32 0 0 0
SMALL
GASTEIGER

@<TRIPOS>ATOM
      1 N         144.0849  139.6873  163.8065 N.3     1  UNL1       -0.2700
      2 C         143.1283  139.5120  164.9486 C.3     1  UNL1        0.0897
      3 C         141.8499  138.7540  164.7463 C.3     1  UNL1        0.0897
      4 N         141.5280  138.1712  163.4023 N.3     1  UNL1       -0.2700
      5 C         142.4846  138.3465  162.2602 C.3     1  UNL1        0.0897
      6 C         143.7630  139.1045  162.4624 C.3     1  UNL1        0.0897
      7 C         145.3634  140.4454  164.0087 C.3     1  UNL1        0.0769
      8 C         145.5594  141.7760  163.3445 C.3     1  UNL1        0.0437
      9 C         143.7295  143.2966  164.3882 C.ar    1  UNL1       -0.0025
     10 C         142.5676  144.2310  164.2236 C.ar    1  UNL1        0.0238
     11 C         142.0738  144.5791  162.8507 C.ar    1  UNL1        0.1431
     12 N         140.9583  145.4645  162.3799 N.ar    1  UNL1       -0.0483
     13 O         140.9369  145.4254  160.8805 O.2     1  UNL1       -0.2415
     14 N         142.0392  144.5159  160.4247 N.ar    1  UNL1       -0.0483
     15 C         142.7419  143.9929  161.6424 C.ar    1  UNL1        0.1428
     16 C         143.9037  143.0585  161.8070 C.ar    1  UNL1        0.0199
     17 C         144.3975  142.7104  163.1799 C.ar    1  UNL1       -0.0191
     18 C         140.2495  137.4131  163.2000 C.3     1  UNL1        0.0769
     19 C         139.0824  138.0761  162.5305 C.3     1  UNL1        0.0437
     20 C         138.7188  139.4882  162.8823 C.ar    1  UNL1       -0.0191
     21 C         138.3935  139.8474  164.3019 C.ar    1  UNL1       -0.0025
     22 C         138.0299  141.2595  164.6537 C.ar    1  UNL1        0.0238
     23 C         137.9916  142.3123  163.5860 C.ar    1  UNL1        0.1431
     24 N         137.6704  143.7769  163.6316 N.ar    1  UNL1       -0.0483
     25 O         137.7972  144.3228  162.2402 O.2     1  UNL1       -0.2415
     26 N         138.1967  143.1957  161.3348 N.ar    1  UNL1       -0.0483
     27 C         138.3169  141.9532  162.1665 C.ar    1  UNL1        0.1428
     28 C         138.6805  140.5411  161.8146 C.ar    1  UNL1        0.0199
@<TRIPOS>BOND
     1     9    10   ar
     2    10    11   ar
     3    11    12   ar
     4    12    13   ar
     5    13    14   ar
     6    14    15   ar
     7    15    16   ar
     8    16    17   ar
     9    17     8    1
    10     8     7    1
    11     7     1    1
    12     1     2    1
    13     2     3    1
    14     3     4    1
    15     4    18    1
    16    18    19    1
    17    19    20    1
    18    20    21   ar
    19    21    22   ar
    20    22    23   ar
    21    23    24   ar
    22    24    25   ar
    23    25    26   ar
    24    26    27   ar
    25    27    28   ar
    26     4     5    1
    27     5     6    1
    28    17     9   ar
    29     6     1    1
    30    15    11   ar
    31    28    20   ar
    32    27    23   ar
@<TRIPOS>MOLECULE
*****
 28 32 0 0 0
SMALL
GASTEIGER

@<TRIPOS>ATOM
      1 N         141.7627  144.4167  162.8419 N.3     1  UNL1       -0.2700
      2 C         142.6971  144.5543  164.0073 C.3     1  UNL1        0.0897
      3 C         143.9456  143.7252  164.0694 C.3     1  UNL1        0.0897
      4 N         144.2597  142.7586  162.9664 N.3     1  UNL1       -0.2700
      5 C         143.3254  142.6209  161.8010 C.3     1  UNL1        0.0897
      6 C         142.0768  143.4500  161.7388 C.3     1  UNL1        0.0897
      7 C         140.5141  145.2457  162.7797 C.3     1  UNL1        0.0769
      8 C         139.3938  144.9877  163.7431 C.3     1  UNL1        0.0437
      9 C         138.0538  142.8095  163.2852 C.ar    1  UNL1       -0.0025
     10 C         137.6956  141.4017  163.6592 C.ar    1  UNL1        0.0238
     11 C         138.3192  140.7645  164.8655 C.ar    1  UNL1        0.1431
     12 N         138.1615  139.4035  165.4760 N.ar    1  UNL1       -0.0483
     13 O         139.0459  139.3328  166.6855 O.2     1  UNL1       -0.2415
     14 N         139.7502  140.6501  166.8224 N.ar    1  UNL1       -0.0483
     15 C         139.3010  141.5349  165.6976 C.ar    1  UNL1        0.1428
     16 C         139.6592  142.9427  165.3234 C.ar    1  UNL1        0.0199
     17 C         139.0356  143.5799  164.1172 C.ar    1  UNL1       -0.0191
     18 C         145.5083  141.9295  163.0285 C.3     1  UNL1        0.0769
     19 C         145.5733  140.7389  163.9385 C.3     1  UNL1        0.0437
     20 C         144.3680  139.8638  164.1160 C.ar    1  UNL1       -0.0191
     21 C         143.7763  139.6699  165.4806 C.ar    1  UNL1       -0.0025
     22 C         142.5710  138.7948  165.6580 C.ar    1  UNL1        0.0238
     23 C         141.9574  138.1137  164.4708 C.ar    1  UNL1        0.1431
     24 N         140.7758  137.1992  164.3380 N.ar    1  UNL1       -0.0483
     25 O         140.6372  136.8280  162.8913 O.2     1  UNL1       -0.2415
     26 N         141.7331  137.5129  162.1300 N.ar    1  UNL1       -0.0483
     27 C         142.5490  138.3075  163.1062 C.ar    1  UNL1        0.1428
     28 C         143.7544  139.1826  162.9287 C.ar    1  UNL1        0.0199
@<TRIPOS>BOND
     1     9    10   ar
     2    10    11   ar
     3    11    12   ar
     4    12    13   ar
     5    13    14   ar
     6    14    15   ar
     7    15    16   ar
     8    16    17   ar
     9    17     8    1
    10     8     7    1
    11     7     1    1
    12     1     2    1
    13     2     3    1
    14     3     4    1
    15     4    18    1
    16    18    19    1
    17    19    20    1
    18    20    21   ar
    19    21    22   ar
    20    22    23   ar
    21    23    24   ar
    22    24    25   ar
    23    25    26   ar
    24    26    27   ar
    25    27    28   ar
    26     4     5    1
    27     5     6    1
    28    17     9   ar
    29     6     1    1
    30    15    11   ar
    31    28    20   ar
    32    27    23   ar
