@<TRIPOS>MOLECULE
*****
 60 62 0 0 0
SMALL
GASTEIGER

@<TRIPOS>ATOM
      1 C         141.7213  138.8378  162.6431 C.3     1  UNL1        0.1486
      2 N         141.6763  139.1427  160.0634 N.am    1  UNL1       -0.2970
      3 C         142.4377  138.8644  161.3254 C.2     1  UNL1        0.2406
      4 O         143.9154  138.6128  161.2700 O.2     1  UNL1       -0.2733
      5 H         140.7065  139.3078  160.0998 H       1  UNL1        0.1499
      6 C         142.3927  139.1693  158.7457 C.3     1  UNL1        0.1488
      7 C         141.0721  144.3825  158.1724 C.3     1  UNL1        0.0765
      8 C         142.5233  144.2784  157.8078 C.3     1  UNL1        0.0412
      9 C         143.2163  142.9491  157.8600 C.3     1  UNL1        0.0951
     10 N         142.4580  141.7239  158.2768 N.am    1  UNL1       -0.2781
     11 C         143.1510  140.3946  158.3289 C.2     1  UNL1        0.2435
     12 O         144.6022  140.2905  157.9643 O.2     1  UNL1       -0.2731
     13 C         141.0068  141.8279  158.6413 C.3     1  UNL1        0.0951
     14 C         140.3138  143.1572  158.5892 C.3     1  UNL1        0.0412
     15 C         138.9349  148.2382  155.4218 C.3     1  UNL1        0.1122
     16 N         139.3105  147.6397  156.7450 N.am    1  UNL1       -0.2872
     17 C         140.0035  146.3104  156.7971 C.2     1  UNL1        0.3008
     18 O         140.3208  145.5796  155.5261 O.2     1  UNL1       -0.2528
     19 N         140.3791  145.7118  158.1202 N.am    1  UNL1       -0.2905
     20 H         139.1022  148.1193  157.5791 H       1  UNL1        0.1510
     21 H         140.1708  146.1914  158.9544 H       1  UNL1        0.1509
     22 C         142.3507  137.9707  157.8449 C.3     1  UNL1        0.0290
     23 C         142.1531  138.1486  156.3685 C.3     1  UNL1        0.0036
     24 C         141.2526  137.2155  155.6146 C.3     1  UNL1        0.0169
     25 C         139.8215  137.5906  155.3676 C.3     1  UNL1        0.0651
     26 N         138.7174  136.7826  155.9826 N.3     1  UNL1       -0.3211
     27 H         138.7194  135.8443  155.5826 H       1  UNL1        0.1189
     28 H         137.8213  137.2313  155.7927 H       1  UNL1        0.1189
     29 N         141.7668  140.0348  163.5458 N.am    1  UNL1       -0.2970
     30 C         142.8365  140.1454  164.5916 C.2     1  UNL1        0.2410
     31 O         143.8607  139.0589  164.7345 O.2     1  UNL1       -0.2733
     32 H         141.0945  140.7480  163.4520 H       1  UNL1        0.1499
     33 C         142.8820  141.3425  165.4943 C.3     1  UNL1        0.1530
     34 N         142.6650  142.7156  164.9306 N.am    1  UNL1       -0.2969
     35 C         143.7939  143.4359  164.2548 C.2     1  UNL1        0.2389
     36 O         145.1397  142.7832  164.1426 O.2     1  UNL1       -0.2736
     37 H         141.7817  143.1440  165.0042 H       1  UNL1        0.1499
     38 C         143.5768  144.8089  163.6912 C.3     1  UNL1        0.1549
     39 N         143.1941  144.9764  162.2505 N.3     1  UNL1       -0.2895
     40 H         143.9860  144.6515  161.6957 H       1  UNL1        0.1237
     41 C         141.9762  144.2853  161.7128 C.3     1  UNL1        0.0733
     42 C         140.6096  144.7395  162.1322 C.3     1  UNL1        0.0381
     43 C         140.1408  146.1225  161.7892 C.3     1  UNL1        0.0061
     44 C         139.7118  143.8108  162.8947 C.ar    1  UNL1       -0.0212
     45 C         139.0392  144.2807  164.1505 C.ar    1  UNL1       -0.0042
     46 C         138.1413  143.3520  164.9130 C.ar    1  UNL1       -0.0003
     47 C         137.9160  141.9534  164.4197 C.ar    1  UNL1       -0.0000
     48 C         138.5886  141.4836  163.1639 C.ar    1  UNL1       -0.0003
     49 C         139.4865  142.4123  162.4015 C.ar    1  UNL1       -0.0042
     50 C         143.1445  141.1666  166.9606 C.3     1  UNL1        0.0553
     51 C         142.3910  141.9914  167.9616 C.ar    1  UNL1       -0.0200
     52 C         140.9791  142.4104  167.6775 C.ar    1  UNL1       -0.0042
     53 C         140.2257  143.2352  168.6786 C.ar    1  UNL1       -0.0003
     54 C         140.8842  143.6409  169.9637 C.ar    1  UNL1       -0.0000
     55 C         142.2962  143.2219  170.2479 C.ar    1  UNL1       -0.0003
     56 C         143.0496  142.3971  169.2468 C.ar    1  UNL1       -0.0042
     57 C         140.9595  137.6141  163.0580 C.3     1  UNL1        0.0290
     58 C         139.4930  137.7095  163.3583 C.3     1  UNL1        0.0021
     59 C         138.5092  137.8956  162.2413 C.3     1  UNL1        0.0001
     60 C         139.0102  137.6190  164.7756 C.3     1  UNL1        0.0001
@<TRIPOS>BOND
     1    15    16    1
     2    16    17   am
     3    17    18    2
     4    17    19   am
     5    19     7    1
     6     7     8    1
     7     8     9    1
     8     9    10    1
     9    10    11   am
    10    11    12    2
    11    11     6    1
    12     6    22    1
    13    22    23    1
    14    23    24    1
    15    24    25    1
    16    25    26    1
    17     6     2    1
    18     2     3   am
    19     3     4    2
    20     3     1    1
    21     1    57    1
    22    57    58    1
    23    58    59    1
    24    58    60    1
    25     1    29    1
    26    29    30   am
    27    30    31    2
    28    30    33    1
    29    33    50    1
    30    50    51    1
    31    51    52   ar
    32    52    53   ar
    33    53    54   ar
    34    54    55   ar
    35    55    56   ar
    36    33    34    1
    37    34    35   am
    38    35    36    2
    39    35    38    1
    40    38    39    1
    41    39    41    1
    42    41    42    1
    43    42    43    1
    44    42    44    1
    45    44    45   ar
    46    45    46   ar
    47    46    47   ar
    48    47    48   ar
    49    48    49   ar
    50    10    13    1
    51    13    14    1
    52    14     7    1
    53    56    51   ar
    54    49    44   ar
    55    16    20    1
    56    19    21    1
    57    26    27    1
    58    26    28    1
    59     2     5    1
    60    29    32    1
    61    34    37    1
    62    39    40    1
@<TRIPOS>MOLECULE
*****
 60 62 0 0 0
SMALL
GASTEIGER

@<TRIPOS>ATOM
      1 C         142.7089  138.0933  157.8878 C.3     1  UNL1        0.1486
      2 N         142.3157  140.1170  156.3065 N.am    1  UNL1       -0.2970
      3 C         143.1957  139.3665  157.2616 C.2     1  UNL1        0.2406
      4 O         144.5627  139.8892  157.5907 O.2     1  UNL1       -0.2733
      5 H         141.4185  139.7739  156.0906 H       1  UNL1        0.1499
      6 C         142.8025  141.3902  155.6804 C.3     1  UNL1        0.1488
      7 C         141.6709  144.6565  159.8398 C.3     1  UNL1        0.0765
      8 C         140.9816  145.2486  158.6464 C.3     1  UNL1        0.0412
      9 C         141.0922  144.5800  157.3082 C.3     1  UNL1        0.0951
     10 N         141.8921  143.3194  157.1634 N.am    1  UNL1       -0.2781
     11 C         142.0026  142.6508  155.8252 C.2     1  UNL1        0.2435
     12 O         141.3134  143.2429  154.6318 O.2     1  UNL1       -0.2731
     13 C         142.5813  142.7273  158.3568 C.3     1  UNL1        0.0951
     14 C         142.4707  143.3959  159.6950 C.3     1  UNL1        0.0412
     15 C         139.4431  145.0155  164.5205 C.3     1  UNL1        0.1122
     16 N         140.4464  145.5046  163.5183 N.am    1  UNL1       -0.2872
     17 C         140.5570  144.8360  162.1801 C.2     1  UNL1        0.3008
     18 O         139.6643  143.6783  161.8441 O.2     1  UNL1       -0.2528
     19 N         141.5603  145.3251  161.1780 N.am    1  UNL1       -0.2905
     20 H         141.0323  146.2644  163.7389 H       1  UNL1        0.1510
     21 H         142.1462  146.0849  161.3986 H       1  UNL1        0.1509
     22 C         144.0892  141.4027  154.9096 C.3     1  UNL1        0.0290
     23 C         145.2084  142.3073  155.3330 C.3     1  UNL1        0.0036
     24 C         146.6034  141.7690  155.4527 C.3     1  UNL1        0.0169
     25 C         147.6123  142.4826  156.3029 C.3     1  UNL1        0.0651
     26 N         147.1776  143.1757  157.5602 N.3     1  UNL1       -0.3211
     27 H         146.5691  143.9593  157.3234 H       1  UNL1        0.1189
     28 H         147.9976  143.5206  158.0592 H       1  UNL1        0.1189
     29 N         142.3088  138.0735  159.3333 N.am    1  UNL1       -0.2970
     30 C         141.2078  138.9691  159.8190 C.2     1  UNL1        0.2410
     31 O         140.5070  139.8843  158.8593 O.2     1  UNL1       -0.2733
     32 H         142.7688  137.4728  159.9632 H       1  UNL1        0.1499
     33 C         140.8077  138.9493  161.2646 C.3     1  UNL1        0.1530
     34 N         139.8843  140.0024  161.8016 N.am    1  UNL1       -0.2969
     35 C         138.4370  139.6835  162.0332 C.2     1  UNL1        0.2389
     36 O         137.9131  138.3116  161.7278 O.2     1  UNL1       -0.2736
     37 H         140.2281  140.9028  162.0021 H       1  UNL1        0.1499
     38 C         137.5137  140.7366  162.5703 C.3     1  UNL1        0.1549
     39 N         137.3583  140.9131  164.0518 N.3     1  UNL1       -0.2895
     40 H         137.3359  139.9782  164.4590 H       1  UNL1        0.1237
     41 C         138.3767  141.6977  164.8245 C.3     1  UNL1        0.0733
     42 C         139.4342  140.9829  165.6123 C.3     1  UNL1        0.0381
     43 C         139.0917  139.7309  166.3641 C.3     1  UNL1        0.0061
     44 C         140.8343  141.5201  165.6484 C.ar    1  UNL1       -0.0212
     45 C         141.5510  141.6584  166.9589 C.ar    1  UNL1       -0.0042
     46 C         142.9510  142.1955  166.9950 C.ar    1  UNL1       -0.0003
     47 C         143.6344  142.5944  165.7206 C.ar    1  UNL1       -0.0000
     48 C         142.9177  142.4560  164.4102 C.ar    1  UNL1       -0.0003
     49 C         141.5176  141.9189  164.3741 C.ar    1  UNL1       -0.0042
     50 C         141.3310  137.8765  162.1730 C.3     1  UNL1        0.0553
     51 C         142.2652  138.2309  163.2918 C.ar    1  UNL1       -0.0200
     52 C         141.8722  137.9551  164.7128 C.ar    1  UNL1       -0.0042
     53 C         142.8064  138.3095  165.8316 C.ar    1  UNL1       -0.0003
     54 C         144.1336  138.9397  165.5294 C.ar    1  UNL1       -0.0000
     55 C         144.5266  139.2155  164.1082 C.ar    1  UNL1       -0.0003
     56 C         143.5924  138.8611  162.9895 C.ar    1  UNL1       -0.0042
     57 C         142.6221  136.8399  157.0683 C.3     1  UNL1        0.0290
     58 C         141.3600  136.5152  156.3258 C.3     1  UNL1        0.0021
     59 C         141.3359  135.3767  155.3494 C.3     1  UNL1        0.0001
     60 C         140.1217  137.3289  156.5596 C.3     1  UNL1        0.0001
@<TRIPOS>BOND
     1    15    16    1
     2    16    17   am
     3    17    18    2
     4    17    19   am
     5    19     7    1
     6     7     8    1
     7     8     9    1
     8     9    10    1
     9    10    11   am
    10    11    12    2
    11    11     6    1
    12     6    22    1
    13    22    23    1
    14    23    24    1
    15    24    25    1
    16    25    26    1
    17     6     2    1
    18     2     3   am
    19     3     4    2
    20     3     1    1
    21     1    57    1
    22    57    58    1
    23    58    59    1
    24    58    60    1
    25     1    29    1
    26    29    30   am
    27    30    31    2
    28    30    33    1
    29    33    50    1
    30    50    51    1
    31    51    52   ar
    32    52    53   ar
    33    53    54   ar
    34    54    55   ar
    35    55    56   ar
    36    33    34    1
    37    34    35   am
    38    35    36    2
    39    35    38    1
    40    38    39    1
    41    39    41    1
    42    41    42    1
    43    42    43    1
    44    42    44    1
    45    44    45   ar
    46    45    46   ar
    47    46    47   ar
    48    47    48   ar
    49    48    49   ar
    50    10    13    1
    51    13    14    1
    52    14     7    1
    53    56    51   ar
    54    49    44   ar
    55    16    20    1
    56    19    21    1
    57    26    27    1
    58    26    28    1
    59     2     5    1
    60    29    32    1
    61    34    37    1
    62    39    40    1
@<TRIPOS>MOLECULE
*****
 60 62 0 0 0
SMALL
GASTEIGER

@<TRIPOS>ATOM
      1 C         140.2641  139.5469  162.3078 C.3     1  UNL1        0.1486
      2 N         142.1381  139.4225  160.5125 N.am    1  UNL1       -0.2970
      3 C         140.7159  139.1827  160.9246 C.2     1  UNL1        0.2406
      4 O         139.7453  138.5786  159.9534 O.2     1  UNL1       -0.2733
      5 H         142.7750  139.8190  161.1500 H       1  UNL1        0.1499
      6 C         142.5898  139.0582  159.1293 C.3     1  UNL1        0.1488
      7 C         140.5886  143.2682  156.3868 C.3     1  UNL1        0.0765
      8 C         142.0635  143.2569  156.1137 C.3     1  UNL1        0.0412
      9 C         142.9325  142.2017  156.7311 C.3     1  UNL1        0.0951
     10 N         142.3266  141.1576  157.6215 N.am    1  UNL1       -0.2781
     11 C         143.1957  140.1023  158.2389 C.2     1  UNL1        0.2435
     12 O         144.6705  140.0911  157.9659 O.2     1  UNL1       -0.2731
     13 C         140.8518  141.1688  157.8945 C.3     1  UNL1        0.0951
     14 C         139.9827  142.2241  157.2771 C.3     1  UNL1        0.0412
     15 C         138.7757  148.1375  156.3285 C.3     1  UNL1        0.1122
     16 N         138.8131  146.7581  155.7402 N.am    1  UNL1       -0.2872
     17 C         139.6821  145.7028  156.3576 C.2     1  UNL1        0.3008
     18 O         140.5137  146.0269  157.5632 O.2     1  UNL1       -0.2528
     19 N         139.7196  144.3235  155.7694 N.am    1  UNL1       -0.2905
     20 H         138.2673  146.5454  154.9489 H       1  UNL1        0.1510
     21 H         139.1738  144.1108  154.9781 H       1  UNL1        0.1509
     22 C         142.4357  137.6499  158.6365 C.3     1  UNL1        0.0290
     23 C         142.6024  137.3433  157.1776 C.3     1  UNL1        0.0036
     24 C         141.4208  136.9065  156.3632 C.3     1  UNL1        0.0169
     25 C         140.0536  137.4344  156.6824 C.3     1  UNL1        0.0651
     26 N         138.8399  136.7768  156.0954 N.3     1  UNL1       -0.3211
     27 H         138.8401  136.9043  155.0834 H       1  UNL1        0.1189
     28 H         137.9997  137.1987  156.4910 H       1  UNL1        0.1189
     29 N         141.2074  140.2383  163.2471 N.am    1  UNL1       -0.2970
     30 C         141.8788  139.4626  164.3415 C.2     1  UNL1        0.2410
     31 O         141.6068  137.9957  164.4966 O.2     1  UNL1       -0.2733
     32 H         141.3859  141.2011  163.1453 H       1  UNL1        0.1499
     33 C         142.8220  140.1540  165.2808 C.3     1  UNL1        0.1530
     34 N         143.7584  141.2058  164.7640 N.am    1  UNL1       -0.2969
     35 C         144.4456  141.0153  163.4444 C.2     1  UNL1        0.2389
     36 O         144.1966  139.7730  162.6416 O.2     1  UNL1       -0.2736
     37 H         143.9218  142.0212  165.2910 H       1  UNL1        0.1499
     38 C         145.3819  142.0671  162.9277 C.3     1  UNL1        0.1549
     39 N         144.8591  143.1799  162.0683 N.3     1  UNL1       -0.2895
     40 H         144.9771  142.8839  161.0993 H       1  UNL1        0.1237
     41 C         143.4367  143.6338  162.2122 C.3     1  UNL1        0.0733
     42 C         143.0028  144.3594  163.4512 C.3     1  UNL1        0.0381
     43 C         143.9868  145.1962  164.2138 C.3     1  UNL1        0.0061
     44 C         141.5848  144.2483  163.9276 C.ar    1  UNL1       -0.0212
     45 C         141.2611  143.4128  165.1307 C.ar    1  UNL1       -0.0042
     46 C         139.8431  143.3017  165.6071 C.ar    1  UNL1       -0.0003
     47 C         138.7488  144.0260  164.8805 C.ar    1  UNL1       -0.0000
     48 C         139.0726  144.8615  163.6775 C.ar    1  UNL1       -0.0003
     49 C         140.4905  144.9726  163.2011 C.ar    1  UNL1       -0.0042
     50 C         142.8290  139.7936  166.7368 C.3     1  UNL1        0.0553
     51 C         141.9915  140.5734  167.7066 C.ar    1  UNL1       -0.0200
     52 C         140.6523  140.0486  168.1320 C.ar    1  UNL1       -0.0042
     53 C         139.8147  140.8285  169.1017 C.ar    1  UNL1       -0.0003
     54 C         140.3164  142.1331  169.6460 C.ar    1  UNL1       -0.0000
     55 C         141.6557  142.6580  169.2205 C.ar    1  UNL1       -0.0003
     56 C         142.4932  141.8781  168.2508 C.ar    1  UNL1       -0.0042
     57 C         138.8692  139.2198  162.7517 C.3     1  UNL1        0.0290
     58 C         138.1341  140.1552  163.6653 C.3     1  UNL1        0.0021
     59 C         137.3337  141.2876  163.0932 C.3     1  UNL1        0.0001
     60 C         138.1995  139.9584  165.1509 C.3     1  UNL1        0.0001
@<TRIPOS>BOND
     1    15    16    1
     2    16    17   am
     3    17    18    2
     4    17    19   am
     5    19     7    1
     6     7     8    1
     7     8     9    1
     8     9    10    1
     9    10    11   am
    10    11    12    2
    11    11     6    1
    12     6    22    1
    13    22    23    1
    14    23    24    1
    15    24    25    1
    16    25    26    1
    17     6     2    1
    18     2     3   am
    19     3     4    2
    20     3     1    1
    21     1    57    1
    22    57    58    1
    23    58    59    1
    24    58    60    1
    25     1    29    1
    26    29    30   am
    27    30    31    2
    28    30    33    1
    29    33    50    1
    30    50    51    1
    31    51    52   ar
    32    52    53   ar
    33    53    54   ar
    34    54    55   ar
    35    55    56   ar
    36    33    34    1
    37    34    35   am
    38    35    36    2
    39    35    38    1
    40    38    39    1
    41    39    41    1
    42    41    42    1
    43    42    43    1
    44    42    44    1
    45    44    45   ar
    46    45    46   ar
    47    46    47   ar
    48    47    48   ar
    49    48    49   ar
    50    10    13    1
    51    13    14    1
    52    14     7    1
    53    56    51   ar
    54    49    44   ar
    55    16    20    1
    56    19    21    1
    57    26    27    1
    58    26    28    1
    59     2     5    1
    60    29    32    1
    61    34    37    1
    62    39    40    1
@<TRIPOS>MOLECULE
*****
 60 62 0 0 0
SMALL
GASTEIGER

@<TRIPOS>ATOM
      1 C         142.2282  144.0457  157.3181 C.3     1  UNL1        0.1486
      2 N         141.3957  141.5884  157.4536 N.am    1  UNL1       -0.2970
      3 C         142.4543  142.5824  157.0779 C.2     1  UNL1        0.2406
      4 O         143.7389  142.1132  156.4618 O.2     1  UNL1       -0.2733
      5 H         140.5525  141.8963  157.8579 H       1  UNL1        0.1499
      6 C         141.6217  140.1250  157.2133 C.3     1  UNL1        0.1488
      7 C         140.0642  138.0308  161.9503 C.3     1  UNL1        0.0765
      8 C         141.4933  137.6160  161.7618 C.3     1  UNL1        0.0412
      9 C         142.2400  138.0359  160.5304 C.3     1  UNL1        0.0951
     10 N         141.5575  138.8705  159.4875 N.am    1  UNL1       -0.2781
     11 C         142.3041  139.2904  158.2562 C.2     1  UNL1        0.2435
     12 O         143.7332  138.8756  158.0677 O.2     1  UNL1       -0.2731
     13 C         140.1284  139.2853  159.6761 C.3     1  UNL1        0.0951
     14 C         139.3818  138.8654  160.9074 C.3     1  UNL1        0.0412
     15 C         138.3151  139.0803  166.7293 C.3     1  UNL1        0.1122
     16 N         138.4430  138.1356  165.5711 N.am    1  UNL1       -0.2872
     17 C         139.1897  138.5555  164.3398 C.2     1  UNL1        0.3008
     18 O         139.8084  139.9201  164.2666 O.2     1  UNL1       -0.2528
     19 N         139.3176  137.6109  163.1816 N.am    1  UNL1       -0.2905
     20 H         138.0369  137.2401  165.6192 H       1  UNL1        0.1510
     21 H         138.9115  136.7154  163.2297 H       1  UNL1        0.1509
     22 C         141.1652  139.4964  155.9302 C.3     1  UNL1        0.0290
     23 C         140.9395  138.0151  155.8594 C.3     1  UNL1        0.0036
     24 C         141.8487  137.1567  155.0309 C.3     1  UNL1        0.0169
     25 C         143.2749  137.5668  154.8133 C.3     1  UNL1        0.0651
     26 N         144.3501  137.0548  155.7253 N.3     1  UNL1       -0.3211
     27 H         144.2064  137.4282  156.6635 H       1  UNL1        0.1189
     28 H         145.2615  137.3520  155.3769 H       1  UNL1        0.1189
     29 N         142.2989  144.5966  158.7115 N.am    1  UNL1       -0.2970
     30 C         141.1109  144.4904  159.6212 C.2     1  UNL1        0.2410
     31 O         139.8523  143.8332  159.1374 O.2     1  UNL1       -0.2733
     32 H         143.1250  145.0280  159.0290 H       1  UNL1        0.1499
     33 C         141.1816  145.0413  161.0145 C.3     1  UNL1        0.1530
     34 N         142.4950  145.0855  161.7379 N.am    1  UNL1       -0.2969
     35 C         143.1164  143.8169  162.2424 C.2     1  UNL1        0.2389
     36 O         142.4244  142.5041  162.0237 O.2     1  UNL1       -0.2736
     37 H         142.9491  145.9471  161.8814 H       1  UNL1        0.1499
     38 C         144.4297  143.8611  162.9657 C.3     1  UNL1        0.1549
     39 N         144.6827  142.9352  164.1184 N.3     1  UNL1       -0.2895
     40 H         145.6887  142.9424  164.2866 H       1  UNL1        0.1237
     41 C         144.0208  143.1857  165.4409 C.3     1  UNL1        0.0733
     42 C         143.2481  142.0894  166.1125 C.3     1  UNL1        0.0381
     43 C         143.1488  140.7385  165.4681 C.3     1  UNL1        0.0061
     44 C         142.5748  142.3440  167.4285 C.ar    1  UNL1       -0.0212
     45 C         141.0914  142.5606  167.4824 C.ar    1  UNL1       -0.0042
     46 C         140.4181  142.8151  168.7984 C.ar    1  UNL1       -0.0003
     47 C         141.2280  142.8531  170.0604 C.ar    1  UNL1       -0.0000
     48 C         142.7113  142.6365  170.0064 C.ar    1  UNL1       -0.0003
     49 C         143.3847  142.3819  168.6904 C.ar    1  UNL1       -0.0042
     50 C         139.9389  145.5480  161.6846 C.3     1  UNL1        0.0553
     51 C         139.2099  144.6806  162.6675 C.ar    1  UNL1       -0.0200
     52 C         138.3692  143.5380  162.1801 C.ar    1  UNL1       -0.0042
     53 C         137.6402  142.6705  163.1630 C.ar    1  UNL1       -0.0003
     54 C         137.7518  142.9458  164.6333 C.ar    1  UNL1       -0.0000
     55 C         138.5925  144.0885  165.1207 C.ar    1  UNL1       -0.0003
     56 C         139.3215  144.9559  164.1378 C.ar    1  UNL1       -0.0042
     57 C         141.9316  144.9580  156.1651 C.3     1  UNL1        0.0290
     58 C         140.5110  145.2980  155.8240 C.3     1  UNL1        0.0021
     59 C         139.6745  144.3283  155.0430 C.3     1  UNL1        0.0001
     60 C         139.9269  146.6078  156.2639 C.3     1  UNL1        0.0001
@<TRIPOS>BOND
     1    15    16    1
     2    16    17   am
     3    17    18    2
     4    17    19   am
     5    19     7    1
     6     7     8    1
     7     8     9    1
     8     9    10    1
     9    10    11   am
    10    11    12    2
    11    11     6    1
    12     6    22    1
    13    22    23    1
    14    23    24    1
    15    24    25    1
    16    25    26    1
    17     6     2    1
    18     2     3   am
    19     3     4    2
    20     3     1    1
    21     1    57    1
    22    57    58    1
    23    58    59    1
    24    58    60    1
    25     1    29    1
    26    29    30   am
    27    30    31    2
    28    30    33    1
    29    33    50    1
    30    50    51    1
    31    51    52   ar
    32    52    53   ar
    33    53    54   ar
    34    54    55   ar
    35    55    56   ar
    36    33    34    1
    37    34    35   am
    38    35    36    2
    39    35    38    1
    40    38    39    1
    41    39    41    1
    42    41    42    1
    43    42    43    1
    44    42    44    1
    45    44    45   ar
    46    45    46   ar
    47    46    47   ar
    48    47    48   ar
    49    48    49   ar
    50    10    13    1
    51    13    14    1
    52    14     7    1
    53    56    51   ar
    54    49    44   ar
    55    16    20    1
    56    19    21    1
    57    26    27    1
    58    26    28    1
    59     2     5    1
    60    29    32    1
    61    34    37    1
    62    39    40    1
@<TRIPOS>MOLECULE
*****
 60 62 0 0 0
SMALL
GASTEIGER

@<TRIPOS>ATOM
      1 C         141.9902  144.7348  157.2592 C.3     1  UNL1        0.1486
      2 N         140.6659  142.5029  157.1378 N.am    1  UNL1       -0.2970
      3 C         141.8854  143.3096  156.8033 C.2     1  UNL1        0.2406
      4 O         143.0002  142.6911  156.0130 O.2     1  UNL1       -0.2733
      5 H         139.9342  142.9088  157.6565 H       1  UNL1        0.1499
      6 C         140.5611  141.0776  156.6819 C.3     1  UNL1        0.1488
      7 C         139.0143  139.1522  161.4933 C.3     1  UNL1        0.0765
      8 C         140.1850  138.3166  161.0676 C.3     1  UNL1        0.0412
      9 C         140.8643  138.5890  159.7583 C.3     1  UNL1        0.0951
     10 N         140.3730  139.6971  158.8747 N.am    1  UNL1       -0.2781
     11 C         141.0524  139.9695  157.5654 C.2     1  UNL1        0.2435
     12 O         142.2230  139.1339  157.1397 O.2     1  UNL1       -0.2731
     13 C         139.2024  140.5328  159.3005 C.3     1  UNL1        0.0951
     14 C         138.5231  140.2603  160.6098 C.3     1  UNL1        0.0412
     15 C         138.8476  139.6405  166.6638 C.3     1  UNL1        0.1122
     16 N         138.2516  139.1239  165.3879 N.am    1  UNL1       -0.2872
     17 C         138.9309  139.3963  164.0786 C.2     1  UNL1        0.3008
     18 O         140.2063  140.1854  164.0452 O.2     1  UNL1       -0.2528
     19 N         138.3350  138.8798  162.8026 N.am    1  UNL1       -0.2905
     20 H         137.4146  138.6061  165.4098 H       1  UNL1        0.1510
     21 H         137.4980  138.3620  162.8245 H       1  UNL1        0.1509
     22 C         139.9651  140.7606  155.3424 C.3     1  UNL1        0.0290
     23 C         138.5761  141.2205  155.0117 C.3     1  UNL1        0.0036
     24 C         137.5061  141.1906  156.0625 C.3     1  UNL1        0.0169
     25 C         137.0563  142.4659  156.7114 C.3     1  UNL1        0.0651
     26 N         136.4130  143.5409  155.8865 N.3     1  UNL1       -0.3211
     27 H         137.0940  143.9163  155.2264 H       1  UNL1        0.1189
     28 H         136.0847  144.2883  156.4982 H       1  UNL1        0.1189
     29 N         142.1596  145.0454  158.7169 N.am    1  UNL1       -0.2970
     30 C         140.9861  144.9473  159.6460 C.2     1  UNL1        0.2410
     31 O         139.6432  144.5385  159.1175 O.2     1  UNL1       -0.2733
     32 H         143.0411  145.3138  159.0638 H       1  UNL1        0.1499
     33 C         141.1556  145.2579  161.1037 C.3     1  UNL1        0.1530
     34 N         142.4957  145.0880  161.7559 N.am    1  UNL1       -0.2969
     35 C         142.9313  143.7343  162.2331 C.2     1  UNL1        0.2389
     36 O         142.0269  142.5505  162.0583 O.2     1  UNL1       -0.2736
     37 H         143.0893  145.8649  161.8706 H       1  UNL1        0.1499
     38 C         144.2714  143.5645  162.8853 C.3     1  UNL1        0.1549
     39 N         144.4280  142.6246  164.0438 N.3     1  UNL1       -0.2895
     40 H         145.4300  142.4976  164.1866 H       1  UNL1        0.1237
     41 C         143.8414  142.9755  165.3789 C.3     1  UNL1        0.0733
     42 C         143.2086  141.9096  166.2236 C.3     1  UNL1        0.0381
     43 C         143.2353  140.4797  165.7711 C.3     1  UNL1        0.0061
     44 C         142.5490  142.2736  167.5207 C.ar    1  UNL1       -0.0212
     45 C         141.0812  142.5810  167.5554 C.ar    1  UNL1       -0.0042
     46 C         140.4217  142.9450  168.8525 C.ar    1  UNL1       -0.0003
     47 C         141.2300  143.0016  170.1149 C.ar    1  UNL1       -0.0000
     48 C         142.6977  142.6943  170.0801 C.ar    1  UNL1       -0.0003
     49 C         143.3572  142.3303  168.7830 C.ar    1  UNL1       -0.0042
     50 C         139.9850  145.7383  161.9092 C.3     1  UNL1        0.0553
     51 C         139.2671  144.7931  162.8263 C.ar    1  UNL1       -0.0200
     52 C         139.4573  144.8984  164.3104 C.ar    1  UNL1       -0.0042
     53 C         138.7394  143.9532  165.2276 C.ar    1  UNL1       -0.0003
     54 C         137.8312  142.9027  164.6606 C.ar    1  UNL1       -0.0000
     55 C         137.6408  142.7974  163.1764 C.ar    1  UNL1       -0.0003
     56 C         138.3588  143.7426  162.2593 C.ar    1  UNL1       -0.0042
     57 C         141.9254  145.8494  156.2574 C.3     1  UNL1        0.0290
     58 C         140.6153  146.2135  155.6243 C.3     1  UNL1        0.0021
     59 C         139.5271  146.8291  156.4533 C.3     1  UNL1        0.0001
     60 C         140.3933  145.9622  154.1623 C.3     1  UNL1        0.0001
@<TRIPOS>BOND
     1    15    16    1
     2    16    17   am
     3    17    18    2
     4    17    19   am
     5    19     7    1
     6     7     8    1
     7     8     9    1
     8     9    10    1
     9    10    11   am
    10    11    12    2
    11    11     6    1
    12     6    22    1
    13    22    23    1
    14    23    24    1
    15    24    25    1
    16    25    26    1
    17     6     2    1
    18     2     3   am
    19     3     4    2
    20     3     1    1
    21     1    57    1
    22    57    58    1
    23    58    59    1
    24    58    60    1
    25     1    29    1
    26    29    30   am
    27    30    31    2
    28    30    33    1
    29    33    50    1
    30    50    51    1
    31    51    52   ar
    32    52    53   ar
    33    53    54   ar
    34    54    55   ar
    35    55    56   ar
    36    33    34    1
    37    34    35   am
    38    35    36    2
    39    35    38    1
    40    38    39    1
    41    39    41    1
    42    41    42    1
    43    42    43    1
    44    42    44    1
    45    44    45   ar
    46    45    46   ar
    47    46    47   ar
    48    47    48   ar
    49    48    49   ar
    50    10    13    1
    51    13    14    1
    52    14     7    1
    53    56    51   ar
    54    49    44   ar
    55    16    20    1
    56    19    21    1
    57    26    27    1
    58    26    28    1
    59     2     5    1
    60    29    32    1
    61    34    37    1
    62    39    40    1
@<TRIPOS>MOLECULE
*****
 60 62 0 0 0
SMALL
GASTEIGER

@<TRIPOS>ATOM
      1 C         142.7118  139.9960  161.7123 C.3     1  UNL1        0.1486
      2 N         143.2349  140.5756  159.2343 N.am    1  UNL1       -0.2970
      3 C         142.3058  140.0121  160.2683 C.2     1  UNL1        0.2406
      4 O         140.9708  139.4647  159.8585 O.2     1  UNL1       -0.2733
      5 H         144.1111  140.9349  159.5034 H       1  UNL1        0.1499
      6 C         142.8290  140.5917  157.7903 C.3     1  UNL1        0.1488
      7 C         143.0733  135.4493  156.1330 C.3     1  UNL1        0.0765
      8 C         144.0941  136.1955  155.3260 C.3     1  UNL1        0.0412
      9 C         144.2882  137.6676  155.5386 C.3     1  UNL1        0.0951
     10 N         143.4615  138.3936  156.5582 N.am    1  UNL1       -0.2781
     11 C         143.6556  139.8657  156.7708 C.2     1  UNL1        0.2435
     12 O         144.6764  140.6119  155.9638 O.2     1  UNL1       -0.2731
     13 C         142.4408  137.6474  157.3652 C.3     1  UNL1        0.0951
     14 C         142.2467  136.1753  157.1526 C.3     1  UNL1        0.0412
     15 C         144.0214  130.5366  157.5352 C.3     1  UNL1        0.1122
     16 N         143.3533  131.5209  156.6214 N.am    1  UNL1       -0.2872
     17 C         143.5474  132.9930  156.8340 C.2     1  UNL1        0.3008
     18 O         144.4097  133.4808  157.9604 O.2     1  UNL1       -0.2528
     19 N         142.8792  133.9772  155.9204 N.am    1  UNL1       -0.2905
     20 H         142.7873  131.2007  155.8822 H       1  UNL1        0.1510
     21 H         142.3133  133.6570  155.1812 H       1  UNL1        0.1509
     22 C         141.5964  141.3337  157.3660 C.3     1  UNL1        0.0290
     23 C         141.2356  142.6299  158.0294 C.3     1  UNL1        0.0036
     24 C         142.2231  143.7587  158.0567 C.3     1  UNL1        0.0169
     25 C         141.7472  145.1666  158.2595 C.3     1  UNL1        0.0651
     26 N         142.4961  146.3082  157.6383 N.3     1  UNL1       -0.3211
     27 H         143.4215  146.3782  158.0616 H       1  UNL1        0.1189
     28 H         141.9840  147.1763  157.7952 H       1  UNL1        0.1189
     29 N         141.7381  140.4244  162.7699 N.am    1  UNL1       -0.2970
     30 C         140.8678  139.4061  163.4450 C.2     1  UNL1        0.2410
     31 O         140.9712  137.9594  163.0625 O.2     1  UNL1       -0.2733
     32 H         141.6703  141.3740  163.0210 H       1  UNL1        0.1499
     33 C         139.8942  139.8345  164.5025 C.3     1  UNL1        0.1530
     34 N         139.0228  141.0347  164.2779 N.am    1  UNL1       -0.2969
     35 C         138.3514  141.2363  162.9518 C.2     1  UNL1        0.2389
     36 O         138.5513  140.2379  161.8504 O.2     1  UNL1       -0.2736
     37 H         138.8915  141.6900  165.0008 H       1  UNL1        0.1499
     38 C         137.4800  142.4364  162.7272 C.3     1  UNL1        0.1549
     39 N         138.0833  143.7209  162.2412 N.3     1  UNL1       -0.2895
     40 H         137.5289  144.4771  162.6429 H       1  UNL1        0.1237
     41 C         139.5203  144.0336  162.5365 C.3     1  UNL1        0.0733
     42 C         139.9475  144.3419  163.9409 C.3     1  UNL1        0.0381
     43 C         138.9450  144.8470  164.9360 C.3     1  UNL1        0.0061
     44 C         141.3770  144.1452  164.3504 C.ar    1  UNL1       -0.0212
     45 C         142.4357  145.0842  163.8528 C.ar    1  UNL1       -0.0042
     46 C         143.8653  144.8875  164.2622 C.ar    1  UNL1       -0.0003
     47 C         144.2361  143.7518  165.1693 C.ar    1  UNL1       -0.0000
     48 C         143.1775  142.8129  165.6669 C.ar    1  UNL1       -0.0003
     49 C         141.7479  143.0096  165.2574 C.ar    1  UNL1       -0.0042
     50 C         139.7919  139.0629  165.7847 C.3     1  UNL1        0.0553
     51 C         140.4151  139.6038  167.0374 C.ar    1  UNL1       -0.0200
     52 C         141.9082  139.6495  167.1729 C.ar    1  UNL1       -0.0042
     53 C         142.5314  140.1904  168.4255 C.ar    1  UNL1       -0.0003
     54 C         141.6615  140.6856  169.5426 C.ar    1  UNL1       -0.0000
     55 C         140.1683  140.6399  169.4071 C.ar    1  UNL1       -0.0003
     56 C         139.5451  140.0990  168.1545 C.ar    1  UNL1       -0.0042
     57 C         144.0913  139.5515  162.0987 C.3     1  UNL1        0.0290
     58 C         144.7939  140.2040  163.2521 C.3     1  UNL1        0.0021
     59 C         144.7631  139.5639  164.6084 C.3     1  UNL1        0.0001
     60 C         145.5275  141.4966  163.0494 C.3     1  UNL1        0.0001
@<TRIPOS>BOND
     1    15    16    1
     2    16    17   am
     3    17    18    2
     4    17    19   am
     5    19     7    1
     6     7     8    1
     7     8     9    1
     8     9    10    1
     9    10    11   am
    10    11    12    2
    11    11     6    1
    12     6    22    1
    13    22    23    1
    14    23    24    1
    15    24    25    1
    16    25    26    1
    17     6     2    1
    18     2     3   am
    19     3     4    2
    20     3     1    1
    21     1    57    1
    22    57    58    1
    23    58    59    1
    24    58    60    1
    25     1    29    1
    26    29    30   am
    27    30    31    2
    28    30    33    1
    29    33    50    1
    30    50    51    1
    31    51    52   ar
    32    52    53   ar
    33    53    54   ar
    34    54    55   ar
    35    55    56   ar
    36    33    34    1
    37    34    35   am
    38    35    36    2
    39    35    38    1
    40    38    39    1
    41    39    41    1
    42    41    42    1
    43    42    43    1
    44    42    44    1
    45    44    45   ar
    46    45    46   ar
    47    46    47   ar
    48    47    48   ar
    49    48    49   ar
    50    10    13    1
    51    13    14    1
    52    14     7    1
    53    56    51   ar
    54    49    44   ar
    55    16    20    1
    56    19    21    1
    57    26    27    1
    58    26    28    1
    59     2     5    1
    60    29    32    1
    61    34    37    1
    62    39    40    1
@<TRIPOS>MOLECULE
*****
 60 62 0 0 0
SMALL
GASTEIGER

@<TRIPOS>ATOM
      1 C         139.9037  143.8273  161.8547 C.3     1  UNL1        0.1486
      2 N         139.6594  144.0224  159.2755 N.am    1  UNL1       -0.2970
      3 C         140.4328  144.2953  160.5314 C.2     1  UNL1        0.2406
      4 O         141.7352  145.0363  160.4641 O.2     1  UNL1       -0.2733
      5 H         138.8045  143.5361  159.3197 H       1  UNL1        0.1499
      6 C         140.1885  144.4904  157.9522 C.3     1  UNL1        0.1488
      7 C         144.7122  141.8073  156.6925 C.3     1  UNL1        0.0765
      8 C         143.6784  141.3701  155.6975 C.3     1  UNL1        0.0412
      9 C         142.2890  141.9315  155.7636 C.3     1  UNL1        0.0951
     10 N         141.9335  142.9302  156.8248 N.am    1  UNL1       -0.2781
     11 C         140.5441  143.4917  156.8910 C.2     1  UNL1        0.2435
     12 O         139.5103  143.0545  155.8960 O.2     1  UNL1       -0.2731
     13 C         142.9672  143.3674  157.8198 C.3     1  UNL1        0.0951
     14 C         144.3566  142.8060  157.7536 C.3     1  UNL1        0.0412
     15 C         149.5405  141.9588  154.7782 C.3     1  UNL1        0.1122
     16 N         148.5157  141.3215  155.6692 N.am    1  UNL1       -0.2872
     17 C         147.1264  141.8830  155.7353 C.2     1  UNL1        0.3008
     18 O         146.7618  143.0817  154.9105 O.2     1  UNL1       -0.2528
     19 N         146.1016  141.2458  156.6263 N.am    1  UNL1       -0.2905
     20 H         148.7551  140.5348  156.2105 H       1  UNL1        0.1510
     21 H         146.3409  140.4591  157.1676 H       1  UNL1        0.1509
     22 C         140.3620  145.9571  157.6901 C.3     1  UNL1        0.0290
     23 C         140.1867  146.4967  156.3015 C.3     1  UNL1        0.0036
     24 C         138.8288  146.9242  155.8289 C.3     1  UNL1        0.0169
     25 C         138.0088  146.0049  154.9729 C.3     1  UNL1        0.0651
     26 N         138.6860  145.0570  154.0279 N.3     1  UNL1       -0.3211
     27 H         139.1644  145.5870  153.2995 H       1  UNL1        0.1189
     28 H         137.9892  144.4461  153.6018 H       1  UNL1        0.1189
     29 N         140.3687  142.5221  162.4292 N.am    1  UNL1       -0.2970
     30 C         140.2268  141.2590  161.6326 C.2     1  UNL1        0.2410
     31 O         139.6199  141.3012  160.2615 O.2     1  UNL1       -0.2733
     32 H         140.7671  142.4944  163.3291 H       1  UNL1        0.1499
     33 C         140.6919  139.9538  162.2070 C.3     1  UNL1        0.1530
     34 N         142.1499  139.7321  162.4812 N.am    1  UNL1       -0.2969
     35 C         143.1786  140.5946  161.8120 C.2     1  UNL1        0.2389
     36 O         142.7493  141.6788  160.8685 O.2     1  UNL1       -0.2736
     37 H         142.4317  139.0204  163.1005 H       1  UNL1        0.1499
     38 C         144.6365  140.3728  162.0862 C.3     1  UNL1        0.1549
     39 N         145.4802  141.4963  162.6117 N.3     1  UNL1       -0.2895
     40 H         145.2058  142.3349  162.0999 H       1  UNL1        0.1237
     41 C         145.4397  141.8462  164.0697 C.3     1  UNL1        0.0733
     42 C         144.2048  142.4603  164.6595 C.3     1  UNL1        0.0381
     43 C         143.9152  143.9164  164.4448 C.3     1  UNL1        0.0061
     44 C         143.2594  141.6183  165.4641 C.ar    1  UNL1       -0.0212
     45 C         142.0760  142.2513  166.1342 C.ar    1  UNL1       -0.0042
     46 C         141.1306  141.4093  166.9388 C.ar    1  UNL1       -0.0003
     47 C         141.3687  139.9344  167.0733 C.ar    1  UNL1       -0.0000
     48 C         142.5520  139.3015  166.4033 C.ar    1  UNL1       -0.0003
     49 C         143.4974  140.1435  165.5987 C.ar    1  UNL1       -0.0042
     50 C         139.6991  138.8702  162.5073 C.3     1  UNL1        0.0553
     51 C         139.1152  138.7484  163.8836 C.ar    1  UNL1       -0.0200
     52 C         138.5539  139.9582  164.5700 C.ar    1  UNL1       -0.0042
     53 C         137.9700  139.8364  165.9463 C.ar    1  UNL1       -0.0003
     54 C         137.9474  138.5047  166.6362 C.ar    1  UNL1       -0.0000
     55 C         138.5087  137.2948  165.9499 C.ar    1  UNL1       -0.0003
     56 C         139.0926  137.4166  164.5735 C.ar    1  UNL1       -0.0042
     57 C         138.9095  144.6646  162.6035 C.3     1  UNL1        0.0290
     58 C         138.4238  144.2247  163.9528 C.3     1  UNL1        0.0021
     59 C         139.0806  144.7510  165.1945 C.3     1  UNL1        0.0001
     60 C         137.2814  143.2587  164.0604 C.3     1  UNL1        0.0001
@<TRIPOS>BOND
     1    15    16    1
     2    16    17   am
     3    17    18    2
     4    17    19   am
     5    19     7    1
     6     7     8    1
     7     8     9    1
     8     9    10    1
     9    10    11   am
    10    11    12    2
    11    11     6    1
    12     6    22    1
    13    22    23    1
    14    23    24    1
    15    24    25    1
    16    25    26    1
    17     6     2    1
    18     2     3   am
    19     3     4    2
    20     3     1    1
    21     1    57    1
    22    57    58    1
    23    58    59    1
    24    58    60    1
    25     1    29    1
    26    29    30   am
    27    30    31    2
    28    30    33    1
    29    33    50    1
    30    50    51    1
    31    51    52   ar
    32    52    53   ar
    33    53    54   ar
    34    54    55   ar
    35    55    56   ar
    36    33    34    1
    37    34    35   am
    38    35    36    2
    39    35    38    1
    40    38    39    1
    41    39    41    1
    42    41    42    1
    43    42    43    1
    44    42    44    1
    45    44    45   ar
    46    45    46   ar
    47    46    47   ar
    48    47    48   ar
    49    48    49   ar
    50    10    13    1
    51    13    14    1
    52    14     7    1
    53    56    51   ar
    54    49    44   ar
    55    16    20    1
    56    19    21    1
    57    26    27    1
    58    26    28    1
    59     2     5    1
    60    29    32    1
    61    34    37    1
    62    39    40    1
@<TRIPOS>MOLECULE
*****
 60 62 0 0 0
SMALL
GASTEIGER

@<TRIPOS>ATOM
      1 C         141.5340  138.0479  156.7118 C.3     1  UNL1        0.1486
      2 N         142.5347  140.4126  156.3157 N.am    1  UNL1       -0.2970
      3 C         141.4644  139.3946  156.0548 C.2     1  UNL1        0.2406
      4 O         140.3244  139.7234  155.1369 O.2     1  UNL1       -0.2733
      5 H         143.2829  140.1968  156.9181 H       1  UNL1        0.1499
      6 C         142.4652  141.7593  155.6587 C.3     1  UNL1        0.1488
      7 C         141.2545  144.5894  160.1057 C.3     1  UNL1        0.0765
      8 C         140.1898  144.9171  159.1012 C.3     1  UNL1        0.0412
      9 C         140.2263  144.2915  157.7384 C.3     1  UNL1        0.0951
     10 N         141.3275  143.3382  157.3800 N.am    1  UNL1       -0.2781
     11 C         141.3640  142.7126  156.0171 C.2     1  UNL1        0.2435
     12 O         140.2993  143.0404  155.0127 O.2     1  UNL1       -0.2731
     13 C         142.3922  143.0105  158.3844 C.3     1  UNL1        0.0951
     14 C         142.3557  143.6360  159.7472 C.3     1  UNL1        0.0412
     15 C         139.2513  144.8309  164.8941 C.3     1  UNL1        0.1122
     16 N         140.2164  145.3357  163.8627 N.am    1  UNL1       -0.2872
     17 C         140.2529  144.7101  162.4998 C.2     1  UNL1        0.3008
     18 O         139.3242  143.5797  162.1684 O.2     1  UNL1       -0.2528
     19 N         141.2180  145.2149  161.4685 N.am    1  UNL1       -0.2905
     20 H         140.8259  146.0776  164.0803 H       1  UNL1        0.1510
     21 H         141.8275  145.9568  161.6860 H       1  UNL1        0.1509
     22 C         143.4968  142.1527  154.6434 C.3     1  UNL1        0.0290
     23 C         144.7444  142.8631  155.0782 C.3     1  UNL1        0.0036
     24 C         146.0273  142.1009  155.2301 C.3     1  UNL1        0.0169
     25 C         146.8833  142.3079  156.4443 C.3     1  UNL1        0.0651
     26 N         146.3050  142.9534  157.6685 N.3     1  UNL1       -0.3211
     27 H         146.0660  143.9231  157.4609 H       1  UNL1        0.1189
     28 H         146.9907  142.9264  158.4233 H       1  UNL1        0.1189
     29 N         141.3655  137.9286  158.1975 N.am    1  UNL1       -0.2970
     30 C         142.4903  138.3118  159.1130 C.2     1  UNL1        0.2410
     31 O         143.7835  138.8143  158.5428 O.2     1  UNL1       -0.2733
     32 H         140.5168  137.5988  158.5718 H       1  UNL1        0.1499
     33 C         142.3218  138.1926  160.5987 C.3     1  UNL1        0.1530
     34 N         140.9485  138.2127  161.2018 N.am    1  UNL1       -0.2969
     35 C         140.2110  139.5111  161.3443 C.2     1  UNL1        0.2389
     36 O         140.8467  140.7892  160.8837 O.2     1  UNL1       -0.2736
     37 H         140.5313  137.3739  161.5042 H       1  UNL1        0.1499
     38 C         138.8377  139.5312  161.9474 C.3     1  UNL1        0.1549
     39 N         138.4781  138.5534  163.0266 N.3     1  UNL1       -0.2895
     40 H         138.8480  137.6476  162.7385 H       1  UNL1        0.1237
     41 C         138.9447  138.7840  164.4334 C.3     1  UNL1        0.0733
     42 C         140.3999  138.6517  164.7721 C.3     1  UNL1        0.0381
     43 C         141.0974  137.3372  164.5831 C.3     1  UNL1        0.0061
     44 C         141.1576  139.8338  165.2999 C.ar    1  UNL1       -0.0212
     45 C         141.1800  141.1175  164.5242 C.ar    1  UNL1       -0.0042
     46 C         141.9377  142.2996  165.0519 C.ar    1  UNL1       -0.0003
     47 C         142.6732  142.1979  166.3554 C.ar    1  UNL1       -0.0000
     48 C         142.6508  140.9142  167.1310 C.ar    1  UNL1       -0.0003
     49 C         141.8930  139.7321  166.6032 C.ar    1  UNL1       -0.0042
     50 C         143.5266  138.0531  161.4813 C.3     1  UNL1        0.0553
     51 C         144.0870  139.2557  162.1810 C.ar    1  UNL1       -0.0200
     52 C         144.4950  139.1630  163.6215 C.ar    1  UNL1       -0.0042
     53 C         145.0554  140.3656  164.3212 C.ar    1  UNL1       -0.0003
     54 C         145.2079  141.6610  163.5804 C.ar    1  UNL1       -0.0000
     55 C         144.7999  141.7538  162.1399 C.ar    1  UNL1       -0.0003
     56 C         144.2394  140.5511  161.4402 C.ar    1  UNL1       -0.0042
     57 C         141.7720  136.8205  155.8830 C.3     1  UNL1        0.0290
     58 C         143.1340  136.1933  155.8458 C.3     1  UNL1        0.0021
     59 C         144.3252  137.0103  155.4412 C.3     1  UNL1        0.0001
     60 C         143.3049  134.7491  156.2132 C.3     1  UNL1        0.0001
@<TRIPOS>BOND
     1    15    16    1
     2    16    17   am
     3    17    18    2
     4    17    19   am
     5    19     7    1
     6     7     8    1
     7     8     9    1
     8     9    10    1
     9    10    11   am
    10    11    12    2
    11    11     6    1
    12     6    22    1
    13    22    23    1
    14    23    24    1
    15    24    25    1
    16    25    26    1
    17     6     2    1
    18     2     3   am
    19     3     4    2
    20     3     1    1
    21     1    57    1
    22    57    58    1
    23    58    59    1
    24    58    60    1
    25     1    29    1
    26    29    30   am
    27    30    31    2
    28    30    33    1
    29    33    50    1
    30    50    51    1
    31    51    52   ar
    32    52    53   ar
    33    53    54   ar
    34    54    55   ar
    35    55    56   ar
    36    33    34    1
    37    34    35   am
    38    35    36    2
    39    35    38    1
    40    38    39    1
    41    39    41    1
    42    41    42    1
    43    42    43    1
    44    42    44    1
    45    44    45   ar
    46    45    46   ar
    47    46    47   ar
    48    47    48   ar
    49    48    49   ar
    50    10    13    1
    51    13    14    1
    52    14     7    1
    53    56    51   ar
    54    49    44   ar
    55    16    20    1
    56    19    21    1
    57    26    27    1
    58    26    28    1
    59     2     5    1
    60    29    32    1
    61    34    37    1
    62    39    40    1
@<TRIPOS>MOLECULE
*****
 60 62 0 0 0
SMALL
GASTEIGER

@<TRIPOS>ATOM
      1 C         141.2954  139.3842  161.9561 C.3     1  UNL1        0.1486
      2 N         140.8698  140.9044  159.8926 N.am    1  UNL1       -0.2970
      3 C         141.6441  139.8064  160.5595 C.2     1  UNL1        0.2406
      4 O         142.7672  139.1307  159.8301 O.2     1  UNL1       -0.2733
      5 H         140.1327  141.3479  160.3714 H       1  UNL1        0.1499
      6 C         141.2185  141.3266  158.4961 C.3     1  UNL1        0.1488
      7 C         136.5202  140.9608  155.8425 C.3     1  UNL1        0.0765
      8 C         137.4547  140.0008  155.1680 C.3     1  UNL1        0.0412
      9 C         138.8630  139.8523  155.6628 C.3     1  UNL1        0.0951
     10 N         139.3366  140.6637  156.8321 N.am    1  UNL1       -0.2781
     11 C         140.7449  140.5152  157.3268 C.2     1  UNL1        0.2435
     12 O         141.6794  139.5552  156.6524 O.2     1  UNL1       -0.2731
     13 C         138.4021  141.6237  157.5065 C.3     1  UNL1        0.0951
     14 C         136.9938  141.7722  157.0117 C.3     1  UNL1        0.0412
     15 C         131.4371  140.0309  156.3882 C.3     1  UNL1        0.1122
     16 N         132.5704  140.6444  155.6205 N.am    1  UNL1       -0.2872
     17 C         133.9786  140.4959  156.1153 C.2     1  UNL1        0.3008
     18 O         134.2536  139.7338  157.3778 O.2     1  UNL1       -0.2528
     19 N         135.1119  141.1093  155.3477 N.am    1  UNL1       -0.2905
     20 H         132.3899  141.1445  154.7920 H       1  UNL1        0.1510
     21 H         134.9315  141.6095  154.5191 H       1  UNL1        0.1509
     22 C         142.0409  142.5604  158.2689 C.3     1  UNL1        0.0290
     23 C         143.5171  142.5371  158.5341 C.3     1  UNL1        0.0036
     24 C         144.4832  142.4415  157.3906 C.3     1  UNL1        0.0169
     25 C         145.0307  141.1065  156.9809 C.3     1  UNL1        0.0651
     26 N         144.4856  139.8516  157.5958 N.3     1  UNL1       -0.3211
     27 H         144.7150  139.8324  158.5895 H       1  UNL1        0.1189
     28 H         144.8988  139.0404  157.1358 H       1  UNL1        0.1189
     29 N         141.3748  140.3736  163.0806 N.am    1  UNL1       -0.2970
     30 C         142.5387  140.3422  164.0265 C.2     1  UNL1        0.2410
     31 O         143.6230  139.3214  163.8477 O.2     1  UNL1       -0.2733
     32 H         140.6631  141.0436  163.1980 H       1  UNL1        0.1499
     33 C         142.6180  141.3317  165.1511 C.3     1  UNL1        0.1530
     34 N         142.5634  142.8025  164.8612 N.am    1  UNL1       -0.2969
     35 C         143.7817  143.5116  164.3486 C.2     1  UNL1        0.2389
     36 O         145.0546  142.7501  164.1258 O.2     1  UNL1       -0.2736
     37 H         141.7279  143.3023  165.0075 H       1  UNL1        0.1499
     38 C         143.7270  144.9823  164.0588 C.3     1  UNL1        0.1549
     39 N         142.4588  145.5995  163.5479 N.3     1  UNL1       -0.2895
     40 H         142.6821  146.5609  163.2906 H       1  UNL1        0.1237
     41 C         141.7481  144.9913  162.3754 C.3     1  UNL1        0.0733
     42 C         140.2511  145.0430  162.2965 C.3     1  UNL1        0.0381
     43 C         139.5708  146.2596  161.7421 C.3     1  UNL1        0.0061
     44 C         139.4343  143.8783  162.7720 C.ar    1  UNL1       -0.0212
     45 C         138.6721  143.0441  161.7854 C.ar    1  UNL1       -0.0042
     46 C         137.8553  141.8793  162.2609 C.ar    1  UNL1       -0.0003
     47 C         137.8007  141.5487  163.7231 C.ar    1  UNL1       -0.0000
     48 C         138.5628  142.3829  164.7096 C.ar    1  UNL1       -0.0003
     49 C         139.3796  143.5476  164.2341 C.ar    1  UNL1       -0.0042
     50 C         142.7520  140.8504  166.5654 C.3     1  UNL1        0.0553
     51 C         142.2703  141.7077  167.6982 C.ar    1  UNL1       -0.0200
     52 C         143.1923  142.0362  168.8348 C.ar    1  UNL1       -0.0042
     53 C         142.7106  142.8934  169.9675 C.ar    1  UNL1       -0.0003
     54 C         141.3069  143.4221  169.9636 C.ar    1  UNL1       -0.0000
     55 C         140.3848  143.0936  168.8270 C.ar    1  UNL1       -0.0003
     56 C         140.8665  142.2363  167.6942 C.ar    1  UNL1       -0.0042
     57 C         140.8674  137.9725  162.2279 C.3     1  UNL1        0.0290
     58 C         140.2587  137.6151  163.5515 C.3     1  UNL1        0.0021
     59 C         138.8101  137.9034  163.8132 C.3     1  UNL1        0.0001
     60 C         141.0987  136.9694  164.6133 C.3     1  UNL1        0.0001
@<TRIPOS>BOND
     1    15    16    1
     2    16    17   am
     3    17    18    2
     4    17    19   am
     5    19     7    1
     6     7     8    1
     7     8     9    1
     8     9    10    1
     9    10    11   am
    10    11    12    2
    11    11     6    1
    12     6    22    1
    13    22    23    1
    14    23    24    1
    15    24    25    1
    16    25    26    1
    17     6     2    1
    18     2     3   am
    19     3     4    2
    20     3     1    1
    21     1    57    1
    22    57    58    1
    23    58    59    1
    24    58    60    1
    25     1    29    1
    26    29    30   am
    27    30    31    2
    28    30    33    1
    29    33    50    1
    30    50    51    1
    31    51    52   ar
    32    52    53   ar
    33    53    54   ar
    34    54    55   ar
    35    55    56   ar
    36    33    34    1
    37    34    35   am
    38    35    36    2
    39    35    38    1
    40    38    39    1
    41    39    41    1
    42    41    42    1
    43    42    43    1
    44    42    44    1
    45    44    45   ar
    46    45    46   ar
    47    46    47   ar
    48    47    48   ar
    49    48    49   ar
    50    10    13    1
    51    13    14    1
    52    14     7    1
    53    56    51   ar
    54    49    44   ar
    55    16    20    1
    56    19    21    1
    57    26    27    1
    58    26    28    1
    59     2     5    1
    60    29    32    1
    61    34    37    1
    62    39    40    1
