@<TRIPOS>MOLECULE
*****
 32 36 0 0 0
SMALL
GASTEIGER

@<TRIPOS>ATOM
      1 N         139.3708  140.1569  167.9073 N.am    1  UNL1       -0.2743
      2 C         140.4588  141.0744  167.4338 C.3     1  UNL1        0.0984
      3 C         140.9955  140.9444  166.0392 C.3     1  UNL1        0.0480
      4 C         140.4441  139.8968  165.1180 C.ar    1  UNL1       -0.0161
      5 C         140.9808  139.7667  163.7234 C.ar    1  UNL1       -0.0041
      6 C         140.4294  138.7191  162.8023 C.ar    1  UNL1       -0.0003
      7 C         139.3414  137.8015  163.2758 C.ar    1  UNL1        0.0001
      8 C         138.8048  137.9315  164.6705 C.ar    1  UNL1        0.0042
      9 C         139.3561  138.9792  165.5915 C.ar    1  UNL1        0.0497
     10 C         138.8194  139.1092  166.9863 C.2     1  UNL1        0.2488
     11 O         137.7314  138.1916  167.4598 O.2     1  UNL1       -0.2699
     12 C         140.9661  138.5890  161.4076 C.ar    1  UNL1       -0.0000
     13 C         142.4472  138.5362  161.1758 C.ar    1  UNL1        0.0001
     14 C         142.9838  138.4061  159.7812 C.ar    1  UNL1        0.0045
     15 C         142.0395  138.3289  158.6183 C.ar    1  UNL1        0.0536
     16 C         140.5584  138.3818  158.8501 C.ar    1  UNL1        0.0045
     17 C         140.0218  138.5118  160.2448 C.ar    1  UNL1        0.0001
     18 C         142.5762  138.1988  157.2236 C.2     1  UNL1        0.2490
     19 O         142.6840  139.4101  156.3456 O.2     1  UNL1       -0.2699
     20 N         143.0050  136.8574  156.7071 N.am    1  UNL1       -0.2761
     21 C         143.5581  136.5740  155.3419 C.3     1  UNL1        0.0938
     22 C         143.8510  135.1054  155.2561 C.3     1  UNL1        0.0233
     23 C         143.4788  134.4811  156.5683 C.3     1  UNL1        0.0233
     24 C         142.9560  135.5639  157.4650 C.3     1  UNL1        0.0938
     25 C         138.8341  140.2869  169.3021 C.3     1  UNL1        0.1110
     26 C         139.7721  140.2589  170.4722 C.3     1  UNL1        0.0938
     27 C         142.6477  138.8122  169.9362 C.3     1  UNL1        0.0173
     28 C         142.4240  140.2817  170.1375 C.3     1  UNL1        0.0576
     29 C         143.4827  141.3442  170.1277 C.3     1  UNL1        0.0174
     30 C         142.8152  142.6659  170.3681 C.3     1  UNL1        0.0187
     31 C         141.3440  142.4202  170.5264 C.3     1  UNL1        0.0721
     32 N         141.1022  140.9467  170.3839 N.3     1  UNL1       -0.2725
@<TRIPOS>BOND
     1    28    27    1
     2    28    29    1
     3    29    30    1
     4    30    31    1
     5    31    32    1
     6    32    26    1
     7    26    25    1
     8    25     1    1
     9     1     2    1
    10     2     3    1
    11     3     4    1
    12     4     5   ar
    13     5     6   ar
    14     6    12    1
    15    12    13   ar
    16    13    14   ar
    17    14    15   ar
    18    15    18    1
    19    18    19    2
    20    18    20   am
    21    20    21    1
    22    21    22    1
    23    22    23    1
    24    23    24    1
    25    15    16   ar
    26    16    17   ar
    27     6     7   ar
    28     7     8   ar
    29     8     9   ar
    30     9    10    1
    31    10    11    2
    32    32    28    1
    33    10     1   am
    34     9     4   ar
    35    17    12   ar
    36    24    20    1
@<TRIPOS>MOLECULE
*****
 32 36 0 0 0
SMALL
GASTEIGER

@<TRIPOS>ATOM
      1 N         141.7303  137.7861  157.6619 N.am    1  UNL1       -0.2743
      2 C         142.9194  137.6138  158.5600 C.3     1  UNL1        0.0984
      3 C         142.7963  137.8911  160.0289 C.3     1  UNL1        0.0480
      4 C         141.4840  138.3407  160.5999 C.ar    1  UNL1       -0.0161
      5 C         141.3609  138.6180  162.0689 C.ar    1  UNL1       -0.0041
      6 C         140.0487  139.0675  162.6398 C.ar    1  UNL1       -0.0003
      7 C         138.8596  139.2397  161.7418 C.ar    1  UNL1        0.0001
      8 C         138.9828  138.9624  160.2729 C.ar    1  UNL1        0.0042
      9 C         140.2950  138.5129  159.7019 C.ar    1  UNL1        0.0497
     10 C         140.4181  138.2356  158.2329 C.2     1  UNL1        0.2488
     11 O         139.2291  138.4078  157.3349 O.2     1  UNL1       -0.2699
     12 C         139.9255  139.3448  164.1089 C.ar    1  UNL1       -0.0000
     13 C         141.1237  139.2081  165.0010 C.ar    1  UNL1        0.0001
     14 C         141.0005  139.4854  166.4699 C.ar    1  UNL1        0.0045
     15 C         139.6792  139.8994  167.0469 C.ar    1  UNL1        0.0536
     16 C         138.4811  140.0360  166.1548 C.ar    1  UNL1        0.0045
     17 C         138.6043  139.7587  164.6858 C.ar    1  UNL1        0.0001
     18 C         139.5561  140.1767  168.5159 C.2     1  UNL1        0.2490
     19 O         138.4639  139.5270  169.3127 O.2     1  UNL1       -0.2699
     20 N         140.5252  141.1036  169.1880 N.am    1  UNL1       -0.2761
     21 C         140.5271  141.4745  170.6414 C.3     1  UNL1        0.0938
     22 C         141.6656  142.4225  170.8763 C.3     1  UNL1        0.0233
     23 C         142.3673  142.6375  169.5681 C.3     1  UNL1        0.0233
     24 C         141.6624  141.8223  168.5247 C.3     1  UNL1        0.0938
     25 C         141.8535  137.5088  156.1929 C.3     1  UNL1        0.1110
     26 C         142.8177  136.4688  155.7042 C.3     1  UNL1        0.0938
     27 C         143.6499  134.0109  157.6831 C.3     1  UNL1        0.0173
     28 C         142.7595  133.9115  156.4801 C.3     1  UNL1        0.0576
     29 C         142.0952  132.6649  155.9754 C.3     1  UNL1        0.0174
     30 C         141.3022  133.0243  154.7539 C.3     1  UNL1        0.0187
     31 C         141.4763  134.4929  154.5037 C.3     1  UNL1        0.0721
     32 N         142.3770  135.0413  155.5705 N.3     1  UNL1       -0.2725
@<TRIPOS>BOND
     1    28    27    1
     2    28    29    1
     3    29    30    1
     4    30    31    1
     5    31    32    1
     6    32    26    1
     7    26    25    1
     8    25     1    1
     9     1     2    1
    10     2     3    1
    11     3     4    1
    12     4     5   ar
    13     5     6   ar
    14     6    12    1
    15    12    13   ar
    16    13    14   ar
    17    14    15   ar
    18    15    18    1
    19    18    19    2
    20    18    20   am
    21    20    21    1
    22    21    22    1
    23    22    23    1
    24    23    24    1
    25    15    16   ar
    26    16    17   ar
    27     6     7   ar
    28     7     8   ar
    29     8     9   ar
    30     9    10    1
    31    10    11    2
    32    32    28    1
    33    10     1   am
    34     9     4   ar
    35    17    12   ar
    36    24    20    1
@<TRIPOS>MOLECULE
*****
 32 36 0 0 0
SMALL
GASTEIGER

@<TRIPOS>ATOM
      1 N         142.1491  138.9987  156.4568 N.am    1  UNL1       -0.2743
      2 C         143.1776  138.6390  157.4877 C.3     1  UNL1        0.0984
      3 C         142.7960  138.5737  158.9369 C.3     1  UNL1        0.0480
      4 C         141.3859  138.8682  159.3552 C.ar    1  UNL1       -0.0161
      5 C         141.0043  138.8029  160.8043 C.ar    1  UNL1       -0.0041
      6 C         139.5942  139.0973  161.2226 C.ar    1  UNL1       -0.0003
      7 C         138.5658  139.4570  160.1916 C.ar    1  UNL1        0.0001
      8 C         138.9473  139.5223  158.7425 C.ar    1  UNL1        0.0042
      9 C         140.3574  139.2279  158.3243 C.ar    1  UNL1        0.0497
     10 C         140.7390  139.2932  156.8750 C.2     1  UNL1        0.2488
     11 O         139.7105  139.6529  155.8441 O.2     1  UNL1       -0.2699
     12 C         139.2126  139.0320  162.6718 C.ar    1  UNL1       -0.0000
     13 C         139.5792  137.8298  163.4904 C.ar    1  UNL1        0.0001
     14 C         139.1976  137.7645  164.9396 C.ar    1  UNL1        0.0045
     15 C         138.4494  138.9015  165.5702 C.ar    1  UNL1        0.0536
     16 C         138.0828  140.1037  164.7515 C.ar    1  UNL1        0.0045
     17 C         138.4644  140.1690  163.3023 C.ar    1  UNL1        0.0001
     18 C         138.0678  138.8361  167.0193 C.2     1  UNL1        0.2490
     19 O         136.9838  137.9015  167.4680 O.2     1  UNL1       -0.2699
     20 N         138.7701  139.7055  168.0197 N.am    1  UNL1       -0.2761
     21 C         138.4984  139.7494  169.4943 C.3     1  UNL1        0.0938
     22 C         139.4278  140.7547  170.1072 C.3     1  UNL1        0.0233
     23 C         140.2740  141.3320  169.0114 C.3     1  UNL1        0.0233
     24 C         139.8675  140.6836  167.7214 C.3     1  UNL1        0.0938
     25 C         142.5307  139.0640  155.0076 C.3     1  UNL1        0.1110
     26 C         142.6403  137.8026  154.2033 C.3     1  UNL1        0.0938
     27 C         140.0527  136.0017  155.0463 C.3     1  UNL1        0.0173
     28 C         141.4902  135.6449  155.2833 C.3     1  UNL1        0.0576
     29 C         141.9907  134.3976  155.9494 C.3     1  UNL1        0.0174
     30 C         143.4894  134.4545  155.9736 C.3     1  UNL1        0.0187
     31 C         143.9152  135.7370  155.3225 C.3     1  UNL1        0.0721
     32 N         142.6796  136.4727  154.8958 N.3     1  UNL1       -0.2725
@<TRIPOS>BOND
     1    28    27    1
     2    28    29    1
     3    29    30    1
     4    30    31    1
     5    31    32    1
     6    32    26    1
     7    26    25    1
     8    25     1    1
     9     1     2    1
    10     2     3    1
    11     3     4    1
    12     4     5   ar
    13     5     6   ar
    14     6    12    1
    15    12    13   ar
    16    13    14   ar
    17    14    15   ar
    18    15    18    1
    19    18    19    2
    20    18    20   am
    21    20    21    1
    22    21    22    1
    23    22    23    1
    24    23    24    1
    25    15    16   ar
    26    16    17   ar
    27     6     7   ar
    28     7     8   ar
    29     8     9   ar
    30     9    10    1
    31    10    11    2
    32    32    28    1
    33    10     1   am
    34     9     4   ar
    35    17    12   ar
    36    24    20    1
@<TRIPOS>MOLECULE
*****
 32 36 0 0 0
SMALL
GASTEIGER

@<TRIPOS>ATOM
      1 N         140.8546  138.1110  157.3006 N.am    1  UNL1       -0.2743
      2 C         139.6080  138.5607  158.0033 C.3     1  UNL1        0.0984
      3 C         139.6304  138.8148  159.4814 C.3     1  UNL1        0.0480
      4 C         140.8994  138.6193  160.2570 C.ar    1  UNL1       -0.0161
      5 C         140.9218  138.8734  161.7351 C.ar    1  UNL1       -0.0041
      6 C         142.1908  138.6778  162.5105 C.ar    1  UNL1       -0.0003
      7 C         143.4374  138.2282  161.8078 C.ar    1  UNL1        0.0001
      8 C         143.4150  137.9741  160.3297 C.ar    1  UNL1        0.0042
      9 C         142.1460  138.1696  159.5543 C.ar    1  UNL1        0.0497
     10 C         142.1236  137.9155  158.0761 C.2     1  UNL1        0.2488
     11 O         143.3702  137.4659  157.3734 O.2     1  UNL1       -0.2699
     12 C         142.2132  138.9319  163.9887 C.ar    1  UNL1       -0.0000
     13 C         140.9270  139.1232  164.7364 C.ar    1  UNL1        0.0001
     14 C         140.9494  139.3773  166.2145 C.ar    1  UNL1        0.0045
     15 C         142.2580  139.4401  166.9450 C.ar    1  UNL1        0.0536
     16 C         143.5442  139.2488  166.1974 C.ar    1  UNL1        0.0045
     17 C         143.5218  138.9947  164.7192 C.ar    1  UNL1        0.0001
     18 C         142.2804  139.6942  168.4232 C.2     1  UNL1        0.2490
     19 O         142.9023  138.6898  169.3474 O.2     1  UNL1       -0.2699
     20 N         141.6808  140.9527  168.9770 N.am    1  UNL1       -0.2761
     21 C         141.6294  141.3420  170.4247 C.3     1  UNL1        0.0938
     22 C         140.9442  142.6728  170.5228 C.3     1  UNL1        0.0233
     23 C         140.5722  143.1060  169.1357 C.3     1  UNL1        0.0233
     24 C         141.0275  142.0429  168.1804 C.3     1  UNL1        0.0938
     25 C         140.8322  137.8569  155.8224 C.3     1  UNL1        0.1110
     26 C         140.1844  136.6156  155.2846 C.3     1  UNL1        0.0938
     27 C         140.3267  135.4093  152.2557 C.3     1  UNL1        0.0173
     28 C         141.0968  134.9083  153.4413 C.3     1  UNL1        0.0576
     29 C         142.0676  133.7648  153.4429 C.3     1  UNL1        0.0174
     30 C         142.6022  133.6126  154.8362 C.3     1  UNL1        0.0187
     31 C         141.9617  134.6620  155.6956 C.3     1  UNL1        0.0721
     32 N         141.0314  135.4628  154.8336 N.3     1  UNL1       -0.2725
@<TRIPOS>BOND
     1    28    27    1
     2    28    29    1
     3    29    30    1
     4    30    31    1
     5    31    32    1
     6    32    26    1
     7    26    25    1
     8    25     1    1
     9     1     2    1
    10     2     3    1
    11     3     4    1
    12     4     5   ar
    13     5     6   ar
    14     6    12    1
    15    12    13   ar
    16    13    14   ar
    17    14    15   ar
    18    15    18    1
    19    18    19    2
    20    18    20   am
    21    20    21    1
    22    21    22    1
    23    22    23    1
    24    23    24    1
    25    15    16   ar
    26    16    17   ar
    27     6     7   ar
    28     7     8   ar
    29     8     9   ar
    30     9    10    1
    31    10    11    2
    32    32    28    1
    33    10     1   am
    34     9     4   ar
    35    17    12   ar
    36    24    20    1
@<TRIPOS>MOLECULE
*****
 32 36 0 0 0
SMALL
GASTEIGER

@<TRIPOS>ATOM
      1 N         139.9213  139.5969  166.4238 N.am    1  UNL1       -0.2743
      2 C         138.7024  139.8667  165.5923 C.3     1  UNL1        0.0984
      3 C         138.7483  139.6648  164.1067 C.3     1  UNL1        0.0480
      4 C         140.0131  139.1931  163.4525 C.ar    1  UNL1       -0.0161
      5 C         140.0589  138.9911  161.9669 C.ar    1  UNL1       -0.0041
      6 C         141.3237  138.5194  161.3129 C.ar    1  UNL1       -0.0003
      7 C         142.5426  138.2496  162.1444 C.ar    1  UNL1        0.0001
      8 C         142.4967  138.4516  163.6300 C.ar    1  UNL1        0.0042
      9 C         141.2320  138.9233  164.2841 C.ar    1  UNL1        0.0497
     10 C         141.1861  139.1252  165.7698 C.2     1  UNL1        0.2488
     11 O         142.4050  138.8554  166.6013 O.2     1  UNL1       -0.2699
     12 C         141.3696  138.3175  159.8272 C.ar    1  UNL1       -0.0000
     13 C         142.6590  137.9378  159.1614 C.ar    1  UNL1        0.0001
     14 C         142.7049  137.7359  157.6758 C.ar    1  UNL1        0.0045
     15 C         141.4614  137.9136  156.8559 C.ar    1  UNL1        0.0536
     16 C         140.1720  138.2933  157.5217 C.ar    1  UNL1        0.0045
     17 C         140.1261  138.4952  159.0074 C.ar    1  UNL1        0.0001
     18 C         141.5074  137.7117  155.3703 C.2     1  UNL1        0.2490
     19 O         141.4572  138.8956  154.4506 O.2     1  UNL1       -0.2699
     20 N         141.6035  136.3259  154.8044 N.am    1  UNL1       -0.2761
     21 C         141.6580  135.9700  153.3482 C.3     1  UNL1        0.0938
     22 C         141.7502  134.4768  153.2391 C.3     1  UNL1        0.0233
     23 C         141.7527  133.9098  154.6279 C.3     1  UNL1        0.0233
     24 C         141.6620  135.0526  155.5952 C.3     1  UNL1        0.0938
     25 C         139.8754  139.7988  167.9095 C.3     1  UNL1        0.1110
     26 C         139.9566  141.1833  168.4811 C.3     1  UNL1        0.0938
     27 C         140.4122  144.0686  169.9360 C.3     1  UNL1        0.0173
     28 C         141.4369  142.9829  169.7907 C.3     1  UNL1        0.0576
     29 C         142.8510  143.0329  170.2886 C.3     1  UNL1        0.0174
     30 C         143.5155  141.7374  169.9276 C.3     1  UNL1        0.0187
     31 C         142.5121  140.8869  169.2066 C.3     1  UNL1        0.0721
     32 N         141.2275  141.6567  169.1219 N.3     1  UNL1       -0.2725
@<TRIPOS>BOND
     1    28    27    1
     2    28    29    1
     3    29    30    1
     4    30    31    1
     5    31    32    1
     6    32    26    1
     7    26    25    1
     8    25     1    1
     9     1     2    1
    10     2     3    1
    11     3     4    1
    12     4     5   ar
    13     5     6   ar
    14     6    12    1
    15    12    13   ar
    16    13    14   ar
    17    14    15   ar
    18    15    18    1
    19    18    19    2
    20    18    20   am
    21    20    21    1
    22    21    22    1
    23    22    23    1
    24    23    24    1
    25    15    16   ar
    26    16    17   ar
    27     6     7   ar
    28     7     8   ar
    29     8     9   ar
    30     9    10    1
    31    10    11    2
    32    32    28    1
    33    10     1   am
    34     9     4   ar
    35    17    12   ar
    36    24    20    1
@<TRIPOS>MOLECULE
*****
 32 36 0 0 0
SMALL
GASTEIGER

@<TRIPOS>ATOM
      1 N         144.6722  141.2900  157.5975 N.am    1  UNL1       -0.2743
      2 C         144.8246  142.4990  158.4722 C.3     1  UNL1        0.0984
      3 C         144.2065  142.5188  159.8387 C.3     1  UNL1        0.0480
      4 C         143.4360  141.3295  160.3307 C.ar    1  UNL1       -0.0161
      5 C         142.8179  141.3493  161.6972 C.ar    1  UNL1       -0.0041
      6 C         142.0474  140.1600  162.1891 C.ar    1  UNL1       -0.0003
      7 C         141.8950  138.9510  161.3145 C.ar    1  UNL1        0.0001
      8 C         142.5131  138.9312  159.9479 C.ar    1  UNL1        0.0042
      9 C         143.2836  140.1205  159.4560 C.ar    1  UNL1        0.0497
     10 C         143.9018  140.1007  158.0894 C.2     1  UNL1        0.2488
     11 O         143.7494  138.8917  157.2147 O.2     1  UNL1       -0.2699
     12 C         141.4292  140.1797  163.5557 C.ar    1  UNL1       -0.0000
     13 C         141.8889  139.2070  164.6009 C.ar    1  UNL1        0.0001
     14 C         141.2709  139.2267  165.9675 C.ar    1  UNL1        0.0045
     15 C         140.1930  140.2192  166.2889 C.ar    1  UNL1        0.0536
     16 C         139.7333  141.1919  165.2437 C.ar    1  UNL1        0.0045
     17 C         140.3514  141.1722  163.8771 C.ar    1  UNL1        0.0001
     18 C         139.5749  140.2389  167.6555 C.2     1  UNL1        0.2490
     19 O         138.6105  139.1628  168.0579 O.2     1  UNL1       -0.2699
     20 N         139.9212  141.3346  168.6196 N.am    1  UNL1       -0.2761
     21 C         139.3856  141.4852  170.0125 C.3     1  UNL1        0.0938
     22 C         139.9973  142.7158  170.6139 C.3     1  UNL1        0.0233
     23 C         140.9110  143.3257  169.5925 C.3     1  UNL1        0.0233
     24 C         140.8640  142.4720  168.3600 C.3     1  UNL1        0.0938
     25 C         145.2904  141.2702  156.2309 C.3     1  UNL1        0.1110
     26 C         145.7337  142.5517  155.5897 C.3     1  UNL1        0.0938
     27 C         146.6647  144.8769  153.4977 C.3     1  UNL1        0.0173
     28 C         147.4754  143.6830  153.9069 C.3     1  UNL1        0.0576
     29 C         148.8563  143.3483  153.4264 C.3     1  UNL1        0.0174
     30 C         149.2818  142.0726  154.0910 C.3     1  UNL1        0.0187
     31 C         148.1639  141.6190  154.9823 C.3     1  UNL1        0.0721
     32 N         147.0474  142.6143  154.8685 N.3     1  UNL1       -0.2725
@<TRIPOS>BOND
     1    28    27    1
     2    28    29    1
     3    29    30    1
     4    30    31    1
     5    31    32    1
     6    32    26    1
     7    26    25    1
     8    25     1    1
     9     1     2    1
    10     2     3    1
    11     3     4    1
    12     4     5   ar
    13     5     6   ar
    14     6    12    1
    15    12    13   ar
    16    13    14   ar
    17    14    15   ar
    18    15    18    1
    19    18    19    2
    20    18    20   am
    21    20    21    1
    22    21    22    1
    23    22    23    1
    24    23    24    1
    25    15    16   ar
    26    16    17   ar
    27     6     7   ar
    28     7     8   ar
    29     8     9   ar
    30     9    10    1
    31    10    11    2
    32    32    28    1
    33    10     1   am
    34     9     4   ar
    35    17    12   ar
    36    24    20    1
@<TRIPOS>MOLECULE
*****
 32 36 0 0 0
SMALL
GASTEIGER

@<TRIPOS>ATOM
      1 N         140.5884  140.4837  165.6939 N.am    1  UNL1       -0.2743
      2 C         141.8937  141.1329  165.3410 C.3     1  UNL1        0.0984
      3 C         142.0255  141.9058  164.0623 C.3     1  UNL1        0.0480
      4 C         140.8519  142.0294  163.1363 C.ar    1  UNL1       -0.0161
      5 C         140.9837  142.8023  161.8575 C.ar    1  UNL1       -0.0041
      6 C         139.8101  142.9259  160.9316 C.ar    1  UNL1       -0.0003
      7 C         138.5047  142.2766  161.2844 C.ar    1  UNL1        0.0001
      8 C         138.3729  141.5038  162.5632 C.ar    1  UNL1        0.0042
      9 C         139.5465  141.3802  163.4891 C.ar    1  UNL1        0.0497
     10 C         139.4148  140.6073  164.7680 C.2     1  UNL1        0.2488
     11 O         138.1094  139.9581  165.1208 O.2     1  UNL1       -0.2699
     12 C         139.9418  143.6988  159.6527 C.ar    1  UNL1       -0.0000
     13 C         140.7027  144.9913  159.6326 C.ar    1  UNL1        0.0001
     14 C         140.8345  145.7642  158.3538 C.ar    1  UNL1        0.0045
     15 C         140.2053  145.2445  157.0951 C.ar    1  UNL1        0.0536
     16 C         139.4444  143.9520  157.1153 C.ar    1  UNL1        0.0045
     17 C         139.3127  143.1791  158.3941 C.ar    1  UNL1        0.0001
     18 C         140.3371  146.0174  155.8164 C.2     1  UNL1        0.2490
     19 O         141.0844  145.4276  154.6572 O.2     1  UNL1       -0.2699
     20 N         139.7215  147.3800  155.6968 N.am    1  UNL1       -0.2761
     21 C         139.7703  148.2665  154.4877 C.3     1  UNL1        0.0938
     22 C         139.0280  149.5298  154.8089 C.3     1  UNL1        0.0233
     23 C         138.5205  149.4241  156.2165 C.3     1  UNL1        0.0233
     24 C         138.9491  148.0955  156.7652 C.3     1  UNL1        0.0938
     25 C         140.4566  139.7108  166.9727 C.3     1  UNL1        0.1110
     26 C         141.2829  140.0890  168.1661 C.3     1  UNL1        0.0938
     27 C         138.6947  140.3996  170.1295 C.3     1  UNL1        0.0173
     28 C         139.7372  141.4471  169.8725 C.3     1  UNL1        0.0576
     29 C         139.7731  142.8212  170.4729 C.3     1  UNL1        0.0174
     30 C         140.9850  143.5277  169.9415 C.3     1  UNL1        0.0187
     31 C         141.6980  142.5902  169.0127 C.3     1  UNL1        0.0721
     32 N         140.9269  141.3043  168.9701 N.3     1  UNL1       -0.2725
@<TRIPOS>BOND
     1    28    27    1
     2    28    29    1
     3    29    30    1
     4    30    31    1
     5    31    32    1
     6    32    26    1
     7    26    25    1
     8    25     1    1
     9     1     2    1
    10     2     3    1
    11     3     4    1
    12     4     5   ar
    13     5     6   ar
    14     6    12    1
    15    12    13   ar
    16    13    14   ar
    17    14    15   ar
    18    15    18    1
    19    18    19    2
    20    18    20   am
    21    20    21    1
    22    21    22    1
    23    22    23    1
    24    23    24    1
    25    15    16   ar
    26    16    17   ar
    27     6     7   ar
    28     7     8   ar
    29     8     9   ar
    30     9    10    1
    31    10    11    2
    32    32    28    1
    33    10     1   am
    34     9     4   ar
    35    17    12   ar
    36    24    20    1
@<TRIPOS>MOLECULE
*****
 32 36 0 0 0
SMALL
GASTEIGER

@<TRIPOS>ATOM
      1 N         138.1907  142.8597  162.3933 N.am    1  UNL1       -0.2743
      2 C         137.8652  141.4524  162.7977 C.3     1  UNL1        0.0984
      3 C         138.3610  140.3015  161.9734 C.3     1  UNL1        0.0480
      4 C         139.1824  140.5579  160.7446 C.ar    1  UNL1       -0.0161
      5 C         139.6782  139.4070  159.9203 C.ar    1  UNL1       -0.0041
      6 C         140.4995  139.6634  158.6917 C.ar    1  UNL1       -0.0003
      7 C         140.8250  141.0707  158.2873 C.ar    1  UNL1        0.0001
      8 C         140.3292  142.2216  159.1116 C.ar    1  UNL1        0.0042
      9 C         139.5079  141.9652  160.3403 C.ar    1  UNL1        0.0497
     10 C         139.0120  143.1161  161.1647 C.2     1  UNL1        0.2488
     11 O         139.3375  144.5235  160.7603 O.2     1  UNL1       -0.2699
     12 C         140.9954  138.5124  157.8673 C.ar    1  UNL1       -0.0000
     13 C         140.0473  137.7627  156.9791 C.ar    1  UNL1        0.0001
     14 C         140.5431  136.6118  156.1547 C.ar    1  UNL1        0.0045
     15 C         141.9871  136.2106  156.2186 C.ar    1  UNL1        0.0536
     16 C         142.9352  136.9604  157.1068 C.ar    1  UNL1        0.0045
     17 C         142.4393  138.1113  157.9312 C.ar    1  UNL1        0.0001
     18 C         142.4829  135.0597  155.3942 C.2     1  UNL1        0.2490
     19 O         142.1539  134.9876  153.9325 O.2     1  UNL1       -0.2699
     20 N         143.3076  133.9810  156.0316 N.am    1  UNL1       -0.2761
     21 C         143.8703  132.7757  155.3384 C.3     1  UNL1        0.0938
     22 C         144.6249  131.9679  156.3524 C.3     1  UNL1        0.0233
     23 C         144.5285  132.6741  157.6723 C.3     1  UNL1        0.0233
     24 C         143.7144  133.9182  157.4740 C.3     1  UNL1        0.0938
     25 C         137.6948  144.0107  163.2177 C.3     1  UNL1        0.1110
     26 C         138.5747  144.6107  164.2739 C.3     1  UNL1        0.0938
     27 C         141.6338  145.2008  163.3025 C.3     1  UNL1        0.0173
     28 C         141.2079  144.1509  164.2856 C.3     1  UNL1        0.0576
     29 C         142.1133  143.1879  164.9947 C.3     1  UNL1        0.0174
     30 C         141.2667  142.3215  165.8794 C.3     1  UNL1        0.0187
     31 C         139.8381  142.7491  165.7171 C.3     1  UNL1        0.0721
     32 N         139.8018  143.8797  164.7320 N.3     1  UNL1       -0.2725
@<TRIPOS>BOND
     1    28    27    1
     2    28    29    1
     3    29    30    1
     4    30    31    1
     5    31    32    1
     6    32    26    1
     7    26    25    1
     8    25     1    1
     9     1     2    1
    10     2     3    1
    11     3     4    1
    12     4     5   ar
    13     5     6   ar
    14     6    12    1
    15    12    13   ar
    16    13    14   ar
    17    14    15   ar
    18    15    18    1
    19    18    19    2
    20    18    20   am
    21    20    21    1
    22    21    22    1
    23    22    23    1
    24    23    24    1
    25    15    16   ar
    26    16    17   ar
    27     6     7   ar
    28     7     8   ar
    29     8     9   ar
    30     9    10    1
    31    10    11    2
    32    32    28    1
    33    10     1   am
    34     9     4   ar
    35    17    12   ar
    36    24    20    1
@<TRIPOS>MOLECULE
*****
 32 36 0 0 0
SMALL
GASTEIGER

@<TRIPOS>ATOM
      1 N         142.7842  138.4822  165.2430 N.am    1  UNL1       -0.2743
      2 C         141.5625  137.7014  164.8583 C.3     1  UNL1        0.0984
      3 C         141.2174  137.5139  163.4107 C.3     1  UNL1        0.0480
      4 C         142.0939  138.1071  162.3477 C.ar    1  UNL1       -0.0161
      5 C         141.7487  137.9196  160.9001 C.ar    1  UNL1       -0.0041
      6 C         142.6252  138.5129  159.8372 C.ar    1  UNL1       -0.0003
      7 C         143.8468  139.2937  160.2219 C.ar    1  UNL1        0.0001
      8 C         144.1920  139.4812  161.6695 C.ar    1  UNL1        0.0042
      9 C         143.3155  138.8879  162.7324 C.ar    1  UNL1        0.0497
     10 C         143.6606  139.0754  164.1801 C.2     1  UNL1        0.2488
     11 O         144.8822  139.8562  164.5648 O.2     1  UNL1       -0.2699
     12 C         142.2800  138.3253  158.3894 C.ar    1  UNL1       -0.0000
     13 C         142.5656  137.0169  157.7138 C.ar    1  UNL1        0.0001
     14 C         142.2205  136.8294  156.2661 C.ar    1  UNL1        0.0045
     15 C         141.5898  137.9503  155.4941 C.ar    1  UNL1        0.0536
     16 C         141.3043  139.2587  156.1698 C.ar    1  UNL1        0.0045
     17 C         141.6494  139.4462  157.6175 C.ar    1  UNL1        0.0001
     18 C         141.2447  137.7627  154.0465 C.2     1  UNL1        0.2490
     19 O         142.3325  137.7319  153.0141 O.2     1  UNL1       -0.2699
     20 N         139.8119  137.6060  153.6312 N.am    1  UNL1       -0.2761
     21 C         139.3166  137.4119  152.2287 C.3     1  UNL1        0.0938
     22 C         137.8213  137.3018  152.2762 C.3     1  UNL1        0.0233
     23 C         137.3926  137.4279  153.7081 C.3     1  UNL1        0.0233
     24 C         138.6228  137.6159  154.5455 C.3     1  UNL1        0.0938
     25 C         143.1293  138.6697  166.6907 C.3     1  UNL1        0.1110
     26 C         142.7830  139.9539  167.3841 C.3     1  UNL1        0.0938
     27 C         139.6713  140.4793  166.5527 C.3     1  UNL1        0.0173
     28 C         140.1857  140.2487  167.9427 C.3     1  UNL1        0.0576
     29 C         139.3600  140.2192  169.1947 C.3     1  UNL1        0.0174
     30 C         140.2801  139.9594  170.3506 C.3     1  UNL1        0.0187
     31 C         141.6743  139.8285  169.8130 C.3     1  UNL1        0.0721
     32 N         141.6160  140.0073  168.3249 N.3     1  UNL1       -0.2725
@<TRIPOS>BOND
     1    28    27    1
     2    28    29    1
     3    29    30    1
     4    30    31    1
     5    31    32    1
     6    32    26    1
     7    26    25    1
     8    25     1    1
     9     1     2    1
    10     2     3    1
    11     3     4    1
    12     4     5   ar
    13     5     6   ar
    14     6    12    1
    15    12    13   ar
    16    13    14   ar
    17    14    15   ar
    18    15    18    1
    19    18    19    2
    20    18    20   am
    21    20    21    1
    22    21    22    1
    23    22    23    1
    24    23    24    1
    25    15    16   ar
    26    16    17   ar
    27     6     7   ar
    28     7     8   ar
    29     8     9   ar
    30     9    10    1
    31    10    11    2
    32    32    28    1
    33    10     1   am
    34     9     4   ar
    35    17    12   ar
    36    24    20    1
