@<TRIPOS>MOLECULE
*****
 35 38 0 0 0
SMALL
GASTEIGER

@<TRIPOS>ATOM
      1 C         142.4706  140.5198  165.5017 C.3     1  UNL1        0.0545
      2 C         141.5282  140.6041  166.6656 C.3     1  UNL1        0.0162
      3 C         140.3459  139.7299  166.3692 C.3     1  UNL1        0.0100
      4 C         140.5576  139.1053  165.0219 C.3     1  UNL1        0.0704
      5 C         141.8707  139.5935  164.4858 C.3     1  UNL1        0.0243
      6 C         140.4919  138.3454  163.7304 C.2     1  UNL1        0.2248
      7 O         141.0148  136.9413  163.6588 O.2     1  UNL1       -0.2749
      8 N         139.9033  138.9896  162.5102 N.am    1  UNL1       -0.2760
      9 C         139.3805  140.3937  162.5818 C.3     1  UNL1        0.1149
     10 C         138.7919  141.0380  161.3618 C.3     1  UNL1        0.1141
     11 N         138.7262  140.2782  160.0702 N.pl3   1  UNL1       -0.2847
     12 C         139.2491  138.8741  159.9986 C.3     1  UNL1        0.1141
     13 C         139.8376  138.2298  161.2186 C.3     1  UNL1        0.1149
     14 C         138.1376  140.9225  158.8501 C.ar    1  UNL1        0.1631
     15 N         137.1380  140.3011  157.9203 N.ar    1  UNL1       -0.2201
     16 C         136.8279  141.2958  156.8412 C.ar    1  UNL1        0.1610
     17 C         137.6359  142.5319  157.1042 C.ar    1  UNL1        0.0612
     18 S         138.4453  142.3011  158.3457 S.2     1  UNL1       -0.0510
     19 C         135.8767  141.0904  155.6996 C.3     1  UNL1        0.4354
     20 F         134.9256  140.8850  154.5580 F       1  UNL1       -0.1644
     21 F         134.8190  140.6383  156.6623 F       1  UNL1       -0.1644
     22 F         136.9346  141.5425  154.7370 F       1  UNL1       -0.1644
     23 C         139.2308  138.4582  165.2881 C.3     1  UNL1        0.0082
     24 C         138.1038  139.2658  165.8605 C.3     1  UNL1        0.0005
     25 C         138.8786  137.5468  165.1699 C.3     1  UNL1        0.0005
     26 N         143.7825  141.2361  165.3757 N.3     1  UNL1       -0.2975
     27 H         143.9892  141.6351  166.2914 H       1  UNL1        0.1232
     28 C         144.4504  142.0418  162.9977 C.3     1  UNL1        0.1591
     29 C         144.6076  143.1486  161.9976 C.3     1  UNL1        0.1729
     30 O         144.2539  144.5566  162.3753 O.3     1  UNL1       -0.3511
     31 C         143.7431  144.8577  163.7531 C.3     1  UNL1        0.1437
     32 C         143.5860  143.7509  164.7532 C.3     1  UNL1        0.0503
     33 C         143.9396  142.3430  164.3755 C.3     1  UNL1        0.0865
     34 C         144.1358  139.9820  161.4460 C.3     1  UNL1        0.1742
     35 O         144.8041  140.6339  162.6200 O.3     1  UNL1       -0.3496
@<TRIPOS>BOND
     1    34    35    1
     2    28    35    1
     3    28    29    1
     4    29    30    1
     5    30    31    1
     6    31    32    1
     7    32    33    1
     8    33    26    1
     9     1    26    1
    10     1     2    1
    11     2     3    1
    12     3     4    1
    13     4     6    1
    14     6     7    2
    15     6     8   am
    16     8     9    1
    17     9    10    1
    18    10    11    1
    19    11    14    1
    20    14    15   ar
    21    15    16   ar
    22    16    19    1
    23    19    20    1
    24    19    21    1
    25    19    22    1
    26    16    17   ar
    27    17    18   ar
    28    11    12    1
    29    12    13    1
    30     4    23    1
    31    23    24    1
    32    23    25    1
    33     4     5    1
    34    33    28    1
    35     5     1    1
    36    13     8    1
    37    18    14   ar
    38    26    27    1
@<TRIPOS>MOLECULE
*****
 35 38 0 0 0
SMALL
GASTEIGER

@<TRIPOS>ATOM
      1 C         140.0112  142.0492  164.7636 C.3     1  UNL1        0.0545
      2 C         140.5311  142.9109  165.8759 C.3     1  UNL1        0.0162
      3 C         141.8598  143.4631  165.4523 C.3     1  UNL1        0.0100
      4 C         142.1612  142.9427  164.0781 C.3     1  UNL1        0.0704
      5 C         141.0187  142.0689  163.6525 C.3     1  UNL1        0.0243
      6 C         142.7261  142.5895  162.7342 C.2     1  UNL1        0.2248
      7 O         143.8090  141.5576  162.6234 O.2     1  UNL1       -0.2749
      8 N         142.2081  143.2684  161.5009 N.am    1  UNL1       -0.2760
      9 C         141.1251  144.3004  161.6117 C.3     1  UNL1        0.1149
     10 C         140.6071  144.9792  160.3786 C.3     1  UNL1        0.1141
     11 N         141.1719  144.6261  159.0346 N.pl3   1  UNL1       -0.2847
     12 C         142.2548  143.5941  158.9238 C.3     1  UNL1        0.1141
     13 C         142.7729  142.9153  160.1570 C.3     1  UNL1        0.1149
     14 C         140.6538  145.3050  157.8014 C.ar    1  UNL1        0.1631
     15 N         139.9533  146.6305  157.7530 N.ar    1  UNL1       -0.2201
     16 C         139.6118  146.9223  156.3218 C.ar    1  UNL1        0.1610
     17 C         140.1012  145.7771  155.4858 C.ar    1  UNL1        0.0612
     18 S         140.7452  144.7776  156.4002 S.2     1  UNL1       -0.0510
     19 C         138.9049  148.1447  155.8156 C.3     1  UNL1        0.4354
     20 F         138.1981  149.3671  155.3094 F       1  UNL1       -0.1644
     21 F         139.2309  147.7494  154.4059 F       1  UNL1       -0.1644
     22 F         138.5790  148.5400  157.2255 F       1  UNL1       -0.1644
     23 C         143.4218  143.7426  164.2228 C.3     1  UNL1        0.0082
     24 C         144.4734  143.3147  165.2031 C.3     1  UNL1        0.0005
     25 C         143.7668  144.5586  163.7939 C.3     1  UNL1        0.0005
     26 N         138.7120  141.2996  164.7625 N.3     1  UNL1       -0.2975
     27 H         138.5436  141.0009  165.7232 H       1  UNL1        0.1232
     28 C         137.8698  140.2022  162.5633 C.3     1  UNL1        0.1591
     29 C         137.7050  138.9885  161.6974 C.3     1  UNL1        0.1729
     30 O         138.2175  137.6585  162.1648 O.3     1  UNL1       -0.3511
     31 C         138.8949  137.5422  163.4980 C.3     1  UNL1        0.1437
     32 C         139.0597  138.7559  164.3639 C.3     1  UNL1        0.0503
     33 C         138.5471  140.0858  163.8965 C.3     1  UNL1        0.0865
     34 C         138.1078  142.2989  161.0477 C.3     1  UNL1        0.1742
     35 O         137.3572  141.5321  162.0959 O.3     1  UNL1       -0.3496
@<TRIPOS>BOND
     1    34    35    1
     2    28    35    1
     3    28    29    1
     4    29    30    1
     5    30    31    1
     6    31    32    1
     7    32    33    1
     8    33    26    1
     9     1    26    1
    10     1     2    1
    11     2     3    1
    12     3     4    1
    13     4     6    1
    14     6     7    2
    15     6     8   am
    16     8     9    1
    17     9    10    1
    18    10    11    1
    19    11    14    1
    20    14    15   ar
    21    15    16   ar
    22    16    19    1
    23    19    20    1
    24    19    21    1
    25    19    22    1
    26    16    17   ar
    27    17    18   ar
    28    11    12    1
    29    12    13    1
    30     4    23    1
    31    23    24    1
    32    23    25    1
    33     4     5    1
    34    33    28    1
    35     5     1    1
    36    13     8    1
    37    18    14   ar
    38    26    27    1
@<TRIPOS>MOLECULE
*****
 35 38 0 0 0
SMALL
GASTEIGER

@<TRIPOS>ATOM
      1 C         142.6765  140.0409  164.8785 C.3     1  UNL1        0.0545
      2 C         142.7124  138.5443  164.9724 C.3     1  UNL1        0.0162
      3 C         141.3343  138.0283  164.6813 C.3     1  UNL1        0.0100
      4 C         140.4467  139.2061  164.4075 C.3     1  UNL1        0.0704
      5 C         141.2762  140.4499  164.5294 C.3     1  UNL1        0.0243
      6 C         139.3372  140.1658  164.0946 C.2     1  UNL1        0.2248
      7 O         138.2571  140.4186  165.1043 O.2     1  UNL1       -0.2749
      8 N         139.3078  140.8727  162.7719 N.am    1  UNL1       -0.2760
      9 C         140.3879  140.6199  161.7623 C.3     1  UNL1        0.1149
     10 C         140.3586  141.3269  160.4396 C.3     1  UNL1        0.1141
     11 N         139.2491  142.2866  160.1266 N.pl3   1  UNL1       -0.2847
     12 C         138.1690  142.5394  161.1363 C.3     1  UNL1        0.1141
     13 C         138.1983  141.8325  162.4589 C.3     1  UNL1        0.1149
     14 C         139.2198  142.9935  158.8040 C.ar    1  UNL1        0.1631
     15 N         139.9606  144.2517  158.4602 N.ar    1  UNL1       -0.2201
     16 C         139.6431  144.6022  157.0367 C.ar    1  UNL1        0.1610
     17 C         138.7062  143.5606  156.5007 C.ar    1  UNL1        0.0612
     18 S         138.4446  142.5665  157.5930 S.2     1  UNL1       -0.0510
     19 C         140.1702  145.7864  156.2816 C.3     1  UNL1        0.4354
     20 F         140.6972  146.9706  155.5266 F       1  UNL1       -0.1644
     21 F         140.1233  144.9953  155.0081 F       1  UNL1       -0.1644
     22 F         140.2170  146.5775  157.5552 F       1  UNL1       -0.1644
     23 C         139.3853  138.1629  164.2202 C.3     1  UNL1        0.0082
     24 C         138.7760  137.4899  165.4143 C.3     1  UNL1        0.0005
     25 C         138.9443  137.7698  163.4330 C.3     1  UNL1        0.0005
     26 N         143.8370  140.9661  165.0957 N.3     1  UNL1       -0.2975
     27 H         143.7844  141.2823  166.0640 H       1  UNL1        0.1232
     28 C         144.5720  142.0866  162.8699 C.3     1  UNL1        0.1591
     29 C         144.7216  143.3142  162.0210 C.3     1  UNL1        0.1729
     30 O         144.2857  144.6489  162.5490 O.3     1  UNL1       -0.3511
     31 C         143.7002  144.7559  163.9259 C.3     1  UNL1        0.1437
     32 C         143.5507  143.5283  164.7747 C.3     1  UNL1        0.0503
     33 C         143.9866  142.1937  164.2467 C.3     1  UNL1        0.0865
     34 C         144.1002  139.9694  161.4401 C.3     1  UNL1        0.1742
     35 O         145.0079  140.7520  162.3419 O.3     1  UNL1       -0.3496
@<TRIPOS>BOND
     1    34    35    1
     2    28    35    1
     3    28    29    1
     4    29    30    1
     5    30    31    1
     6    31    32    1
     7    32    33    1
     8    33    26    1
     9     1    26    1
    10     1     2    1
    11     2     3    1
    12     3     4    1
    13     4     6    1
    14     6     7    2
    15     6     8   am
    16     8     9    1
    17     9    10    1
    18    10    11    1
    19    11    14    1
    20    14    15   ar
    21    15    16   ar
    22    16    19    1
    23    19    20    1
    24    19    21    1
    25    19    22    1
    26    16    17   ar
    27    17    18   ar
    28    11    12    1
    29    12    13    1
    30     4    23    1
    31    23    24    1
    32    23    25    1
    33     4     5    1
    34    33    28    1
    35     5     1    1
    36    13     8    1
    37    18    14   ar
    38    26    27    1
@<TRIPOS>MOLECULE
*****
 35 38 0 0 0
SMALL
GASTEIGER

@<TRIPOS>ATOM
      1 C         138.2893  142.4289  164.0431 C.3     1  UNL1        0.0545
      2 C         137.7229  143.7829  163.7334 C.3     1  UNL1        0.0162
      3 C         138.8673  144.7113  163.4537 C.3     1  UNL1        0.0100
      4 C         140.1412  143.9311  163.5906 C.3     1  UNL1        0.0704
      5 C         139.7839  142.5206  163.9548 C.3     1  UNL1        0.0243
      6 C         141.5512  143.4236  163.6541 C.2     1  UNL1        0.2248
      7 O         142.2524  143.3203  164.9760 O.2     1  UNL1       -0.2749
      8 N         142.2603  143.0194  162.3955 N.am    1  UNL1       -0.2760
      9 C         141.5591  143.1228  161.0735 C.3     1  UNL1        0.1149
     10 C         142.2681  142.7186  159.8149 C.3     1  UNL1        0.1141
     11 N         143.6781  142.2111  159.8783 N.pl3   1  UNL1       -0.2847
     12 C         144.3793  142.1078  161.2003 C.3     1  UNL1        0.1141
     13 C         143.6704  142.5119  162.4589 C.3     1  UNL1        0.1149
     14 C         144.3871  141.8069  158.6197 C.ar    1  UNL1        0.1631
     15 N         145.5705  142.5006  158.0128 N.ar    1  UNL1       -0.2201
     16 C         145.9519  141.7606  156.7650 C.ar    1  UNL1        0.1610
     17 C         145.0042  140.6095  156.6009 C.ar    1  UNL1        0.0612
     18 S         144.0372  140.6382  157.7471 S.2     1  UNL1       -0.0510
     19 C         147.0826  142.1102  155.8433 C.3     1  UNL1        0.4354
     20 F         148.2132  142.4599  154.9217 F       1  UNL1       -0.1644
     21 F         147.4002  143.3086  156.6877 F       1  UNL1       -0.1644
     22 F         146.7648  140.9118  154.9990 F       1  UNL1       -0.1644
     23 C         140.7931  145.2356  163.2396 C.3     1  UNL1        0.0082
     24 C         140.2026  146.1054  162.1697 C.3     1  UNL1        0.0005
     25 C         141.5899  145.7117  163.5671 C.3     1  UNL1        0.0005
     26 N         137.4998  141.1993  164.3816 N.3     1  UNL1       -0.2975
     27 H         137.3456  141.2166  165.3897 H       1  UNL1        0.1232
     28 C         138.5387  138.9441  165.1464 C.3     1  UNL1        0.1591
     29 C         139.0854  137.5871  164.8152 C.3     1  UNL1        0.1729
     30 O         139.1399  137.1283  163.3882 O.3     1  UNL1       -0.3511
     31 C         138.6477  138.0264  162.2923 C.3     1  UNL1        0.1437
     32 C         138.1010  139.3834  162.6234 C.3     1  UNL1        0.0503
     33 C         138.0465  139.8422  164.0505 C.3     1  UNL1        0.0865
     34 C         139.6043  140.2238  167.1406 C.3     1  UNL1        0.1742
     35 O         138.4843  139.4029  166.5734 O.3     1  UNL1       -0.3496
@<TRIPOS>BOND
     1    34    35    1
     2    28    35    1
     3    28    29    1
     4    29    30    1
     5    30    31    1
     6    31    32    1
     7    32    33    1
     8    33    26    1
     9     1    26    1
    10     1     2    1
    11     2     3    1
    12     3     4    1
    13     4     6    1
    14     6     7    2
    15     6     8   am
    16     8     9    1
    17     9    10    1
    18    10    11    1
    19    11    14    1
    20    14    15   ar
    21    15    16   ar
    22    16    19    1
    23    19    20    1
    24    19    21    1
    25    19    22    1
    26    16    17   ar
    27    17    18   ar
    28    11    12    1
    29    12    13    1
    30     4    23    1
    31    23    24    1
    32    23    25    1
    33     4     5    1
    34    33    28    1
    35     5     1    1
    36    13     8    1
    37    18    14   ar
    38    26    27    1
@<TRIPOS>MOLECULE
*****
 35 38 0 0 0
SMALL
GASTEIGER

@<TRIPOS>ATOM
      1 C         139.5778  140.9768  159.9689 C.3     1  UNL1        0.0545
      2 C         139.2508  139.6363  159.3804 C.3     1  UNL1        0.0162
      3 C         140.4483  138.7496  159.5533 C.3     1  UNL1        0.0100
      4 C         141.5153  139.5420  160.2486 C.3     1  UNL1        0.0704
      5 C         140.9773  140.9184  160.5055 C.3     1  UNL1        0.0243
      6 C         142.7487  140.0697  160.9196 C.2     1  UNL1        0.2248
      7 O         143.9672  140.3890  160.1052 O.2     1  UNL1       -0.2749
      8 N         142.7636  140.2782  162.4050 N.am    1  UNL1       -0.2760
      9 C         141.5450  139.9589  163.2193 C.3     1  UNL1        0.1149
     10 C         141.5598  140.1674  164.7047 C.3     1  UNL1        0.1141
     11 N         142.7932  140.6951  165.3757 N.pl3   1  UNL1       -0.2847
     12 C         144.0117  141.0144  164.5614 C.3     1  UNL1        0.1141
     13 C         143.9969  140.8060  163.0760 C.3     1  UNL1        0.1149
     14 C         142.8079  140.9035  166.8611 C.ar    1  UNL1        0.1631
     15 N         143.1683  142.1758  167.5693 N.ar    1  UNL1       -0.2201
     16 C         143.0481  141.9349  169.0449 C.ar    1  UNL1        0.1610
     17 C         142.6134  140.5138  169.2487 C.ar    1  UNL1        0.0612
     18 S         142.4650  139.8765  167.8990 S.2     1  UNL1       -0.0510
     19 C         143.3156  142.9389  170.1269 C.3     1  UNL1        0.4354
     20 F         143.5830  143.9429  171.2088 F       1  UNL1       -0.1644
     21 F         141.8470  143.2299  170.2199 F       1  UNL1       -0.1644
     22 F         144.7841  142.6479  170.0338 F       1  UNL1       -0.1644
     23 C         142.3111  138.2759  160.1320 C.3     1  UNL1        0.0082
     24 C         142.6956  137.7535  158.7795 C.3     1  UNL1        0.0005
     25 C         142.6811  137.6384  160.7842 C.3     1  UNL1        0.0005
     26 N         138.6655  142.1666  160.0131 N.3     1  UNL1       -0.2975
     27 H         138.7858  142.6628  159.1301 H       1  UNL1        0.1232
     28 C         138.0405  143.0309  162.3822 C.3     1  UNL1        0.1591
     29 C         138.1876  144.0485  163.4743 C.3     1  UNL1        0.1729
     30 O         139.1065  145.2196  163.2895 O.3     1  UNL1       -0.3511
     31 C         139.8784  145.3730  162.0126 C.3     1  UNL1        0.1437
     32 C         139.7314  144.3553  160.9205 C.3     1  UNL1        0.0503
     33 C         138.8125  143.1843  161.1053 C.3     1  UNL1        0.0865
     34 C         137.6396  140.5878  163.1700 C.3     1  UNL1        0.1742
     35 O         137.1216  141.8598  162.5670 O.3     1  UNL1       -0.3496
@<TRIPOS>BOND
     1    34    35    1
     2    28    35    1
     3    28    29    1
     4    29    30    1
     5    30    31    1
     6    31    32    1
     7    32    33    1
     8    33    26    1
     9     1    26    1
    10     1     2    1
    11     2     3    1
    12     3     4    1
    13     4     6    1
    14     6     7    2
    15     6     8   am
    16     8     9    1
    17     9    10    1
    18    10    11    1
    19    11    14    1
    20    14    15   ar
    21    15    16   ar
    22    16    19    1
    23    19    20    1
    24    19    21    1
    25    19    22    1
    26    16    17   ar
    27    17    18   ar
    28    11    12    1
    29    12    13    1
    30     4    23    1
    31    23    24    1
    32    23    25    1
    33     4     5    1
    34    33    28    1
    35     5     1    1
    36    13     8    1
    37    18    14   ar
    38    26    27    1
@<TRIPOS>MOLECULE
*****
 35 38 0 0 0
SMALL
GASTEIGER

@<TRIPOS>ATOM
      1 C         142.1285  141.2620  166.1139 C.3     1  UNL1        0.0545
      2 C         141.8819  140.2292  167.1735 C.3     1  UNL1        0.0162
      3 C         140.5954  139.5297  166.8485 C.3     1  UNL1        0.0100
      4 C         140.0469  140.1302  165.5882 C.3     1  UNL1        0.0704
      5 C         140.9944  141.2008  165.1342 C.3     1  UNL1        0.0243
      6 C         139.2661  140.5241  164.3695 C.2     1  UNL1        0.2248
      7 O         138.0742  141.4251  164.5011 O.2     1  UNL1       -0.2749
      8 N         139.6774  140.0169  163.0190 N.am    1  UNL1       -0.2760
      9 C         140.8694  139.1159  162.8874 C.3     1  UNL1        0.1149
     10 C         141.2807  138.6087  161.5370 C.3     1  UNL1        0.1141
     11 N         140.5000  139.0026  160.3182 N.pl3   1  UNL1       -0.2847
     12 C         139.3081  139.9036  160.4498 C.3     1  UNL1        0.1141
     13 C         138.8967  140.4108  161.8002 C.3     1  UNL1        0.1149
     14 C         140.9114  138.4954  158.9678 C.ar    1  UNL1        0.1631
     15 N         142.2190  137.8414  158.6324 N.ar    1  UNL1       -0.2201
     16 C         142.2031  137.4950  157.1730 C.ar    1  UNL1        0.1610
     17 C         140.8856  137.9348  156.6065 C.ar    1  UNL1        0.0612
     18 S         140.0874  138.5531  157.7158 S.2     1  UNL1       -0.0510
     19 C         143.3103  136.8261  156.4135 C.3     1  UNL1        0.4354
     20 F         144.4175  136.1573  155.6539 F       1  UNL1       -0.1644
     21 F         143.3541  137.9825  155.4590 F       1  UNL1       -0.1644
     22 F         143.2665  135.6698  157.3680 F       1  UNL1       -0.1644
     23 C         138.9362  139.1420  165.7874 C.3     1  UNL1        0.0082
     24 C         139.0603  137.7527  165.2354 C.3     1  UNL1        0.0005
     25 C         138.0596  139.1793  166.2333 C.3     1  UNL1        0.0005
     26 N         143.3030  142.1926  166.0461 N.3     1  UNL1       -0.2975
     27 H         143.0976  142.9720  166.6711 H       1  UNL1        0.1232
     28 C         144.6079  142.0180  163.8063 C.3     1  UNL1        0.1591
     29 C         145.0181  142.6133  162.4920 C.3     1  UNL1        0.1729
     30 O         144.5335  143.9787  162.1033 O.3     1  UNL1       -0.3511
     31 C         143.6389  144.7486  163.0288 C.3     1  UNL1        0.1437
     32 C         143.2287  144.1533  164.3431 C.3     1  UNL1        0.0503
     33 C         143.7132  142.7879  164.7318 C.3     1  UNL1        0.0865
     34 C         144.4800  139.4337  163.5712 C.3     1  UNL1        0.1742
     35 O         145.0924  140.6526  164.1950 O.3     1  UNL1       -0.3496
@<TRIPOS>BOND
     1    34    35    1
     2    28    35    1
     3    28    29    1
     4    29    30    1
     5    30    31    1
     6    31    32    1
     7    32    33    1
     8    33    26    1
     9     1    26    1
    10     1     2    1
    11     2     3    1
    12     3     4    1
    13     4     6    1
    14     6     7    2
    15     6     8   am
    16     8     9    1
    17     9    10    1
    18    10    11    1
    19    11    14    1
    20    14    15   ar
    21    15    16   ar
    22    16    19    1
    23    19    20    1
    24    19    21    1
    25    19    22    1
    26    16    17   ar
    27    17    18   ar
    28    11    12    1
    29    12    13    1
    30     4    23    1
    31    23    24    1
    32    23    25    1
    33     4     5    1
    34    33    28    1
    35     5     1    1
    36    13     8    1
    37    18    14   ar
    38    26    27    1
@<TRIPOS>MOLECULE
*****
 35 38 0 0 0
SMALL
GASTEIGER

@<TRIPOS>ATOM
      1 C         139.9013  142.6218  164.2899 C.3     1  UNL1        0.0545
      2 C         140.0083  144.1167  164.3527 C.3     1  UNL1        0.0162
      3 C         141.4290  144.4928  164.0520 C.3     1  UNL1        0.0100
      4 C         142.1999  143.2303  163.8034 C.3     1  UNL1        0.0704
      5 C         141.2558  142.0740  163.9504 C.3     1  UNL1        0.0243
      6 C         143.2125  142.1629  163.5113 C.2     1  UNL1        0.2248
      7 O         144.2678  141.8326  164.5248 O.2     1  UNL1       -0.2749
      8 N         143.1698  141.4259  162.2055 N.am    1  UNL1       -0.2760
      9 C         142.1146  141.7562  161.1920 C.3     1  UNL1        0.1149
     10 C         142.0718  141.0192  159.8862 C.3     1  UNL1        0.1141
     11 N         143.0844  139.9518  159.5940 N.pl3   1  UNL1       -0.2847
     12 C         144.1396  139.6214  160.6076 C.3     1  UNL1        0.1141
     13 C         144.1824  140.3584  161.9133 C.3     1  UNL1        0.1149
     14 C         143.0416  139.2148  158.2883 C.ar    1  UNL1        0.1631
     15 N         143.1129  137.7267  158.1131 N.ar    1  UNL1       -0.2201
     16 C         143.0355  137.4287  156.6450 C.ar    1  UNL1        0.1610
     17 C         142.9163  138.7325  155.9130 C.ar    1  UNL1        0.0612
     18 S         142.9201  139.8363  156.9286 S.2     1  UNL1       -0.0510
     19 C         143.0710  136.0659  156.0189 C.3     1  UNL1        0.4354
     20 F         143.1064  134.7033  155.3929 F       1  UNL1       -0.1644
     21 F         141.6333  135.8570  156.3924 F       1  UNL1       -0.1644
     22 F         144.5086  136.2750  155.6455 F       1  UNL1       -0.1644
     23 C         143.3557  144.1634  163.5953 C.3     1  UNL1        0.0082
     24 C         144.0500  144.7727  164.7772 C.3     1  UNL1        0.0005
     25 C         143.8191  144.5111  162.7997 C.3     1  UNL1        0.0005
     26 N         138.6581  141.8162  164.5253 N.3     1  UNL1       -0.2975
     27 H         138.5634  141.7091  165.5352 H       1  UNL1        0.1232
     28 C         137.9154  140.2715  162.5727 C.3     1  UNL1        0.1591
     29 C         137.7863  138.9006  161.9779 C.3     1  UNL1        0.1729
     30 O         138.2708  137.7034  162.7409 O.3     1  UNL1       -0.3511
     31 C         138.8843  137.8771  164.0986 C.3     1  UNL1        0.1437
     32 C         139.0134  139.2480  164.6933 C.3     1  UNL1        0.0503
     33 C         138.5289  140.4452  163.9304 C.3     1  UNL1        0.0865
     34 C         138.3712  142.2162  160.9113 C.3     1  UNL1        0.1742
     35 O         137.4310  141.4687  161.8098 O.3     1  UNL1       -0.3496
@<TRIPOS>BOND
     1    34    35    1
     2    28    35    1
     3    28    29    1
     4    29    30    1
     5    30    31    1
     6    31    32    1
     7    32    33    1
     8    33    26    1
     9     1    26    1
    10     1     2    1
    11     2     3    1
    12     3     4    1
    13     4     6    1
    14     6     7    2
    15     6     8   am
    16     8     9    1
    17     9    10    1
    18    10    11    1
    19    11    14    1
    20    14    15   ar
    21    15    16   ar
    22    16    19    1
    23    19    20    1
    24    19    21    1
    25    19    22    1
    26    16    17   ar
    27    17    18   ar
    28    11    12    1
    29    12    13    1
    30     4    23    1
    31    23    24    1
    32    23    25    1
    33     4     5    1
    34    33    28    1
    35     5     1    1
    36    13     8    1
    37    18    14   ar
    38    26    27    1
@<TRIPOS>MOLECULE
*****
 35 38 0 0 0
SMALL
GASTEIGER

@<TRIPOS>ATOM
      1 C         140.9307  142.1406  165.8683 C.3     1  UNL1        0.0545
      2 C         140.4155  141.0675  166.7810 C.3     1  UNL1        0.0162
      3 C         141.1949  139.8148  166.5099 C.3     1  UNL1        0.0100
      4 C         142.1918  140.1137  165.4297 C.3     1  UNL1        0.0704
      5 C         142.0285  141.5511  165.0332 C.3     1  UNL1        0.0243
      6 C         143.2698  140.1121  164.3868 C.2     1  UNL1        0.2248
      7 O         144.6509  140.5827  164.7349 O.2     1  UNL1       -0.2749
      8 N         142.9669  139.6399  162.9956 N.am    1  UNL1       -0.2760
      9 C         141.5859  139.1693  162.6475 C.3     1  UNL1        0.1149
     10 C         141.2828  138.6971  161.2564 C.3     1  UNL1        0.1141
     11 N         142.3609  138.6955  160.2134 N.pl3   1  UNL1       -0.2847
     12 C         143.7419  139.1661  160.5615 C.3     1  UNL1        0.1141
     13 C         144.0449  139.6383  161.9527 C.3     1  UNL1        0.1149
     14 C         142.0579  138.2232  158.8223 C.ar    1  UNL1        0.1631
     15 N         142.9381  137.3526  157.9755 N.ar    1  UNL1       -0.2201
     16 C         142.2457  137.1300  156.6636 C.ar    1  UNL1        0.1610
     17 C         140.9376  137.8631  156.6996 C.ar    1  UNL1        0.0612
     18 S         140.8215  138.5387  158.0338 S.2     1  UNL1       -0.0510
     19 C         142.7695  136.3170  155.5169 C.3     1  UNL1        0.4354
     20 F         143.2934  135.5040  154.3703 F       1  UNL1       -0.1644
     21 F         144.1686  136.5009  156.0257 F       1  UNL1       -0.1644
     22 F         141.3704  136.1331  155.0082 F       1  UNL1       -0.1644
     23 C         142.5804  138.6761  165.6082 C.3     1  UNL1        0.0082
     24 C         143.7270  138.3148  166.5054 C.3     1  UNL1        0.0005
     25 C         142.2385  137.8257  165.2493 C.3     1  UNL1        0.0005
     26 N         140.4351  143.5548  165.8023 N.3     1  UNL1       -0.2975
     27 H         139.7567  143.6645  166.5560 H       1  UNL1        0.1232
     28 C         140.5480  144.9321  163.6022 C.3     1  UNL1        0.1591
     29 C         139.8923  145.4394  162.3522 C.3     1  UNL1        0.1729
     30 O         138.4680  145.0769  162.0522 O.3     1  UNL1       -0.3511
     31 C         137.6995  144.2070  163.0022 C.3     1  UNL1        0.1437
     32 C         138.3552  143.6996  164.2522 C.3     1  UNL1        0.0503
     33 C         139.7794  144.0622  164.5522 C.3     1  UNL1        0.0865
     34 C         143.0858  144.6834  163.1045 C.3     1  UNL1        0.1742
     35 O         141.9722  145.2947  163.9022 O.3     1  UNL1       -0.3496
@<TRIPOS>BOND
     1    34    35    1
     2    28    35    1
     3    28    29    1
     4    29    30    1
     5    30    31    1
     6    31    32    1
     7    32    33    1
     8    33    26    1
     9     1    26    1
    10     1     2    1
    11     2     3    1
    12     3     4    1
    13     4     6    1
    14     6     7    2
    15     6     8   am
    16     8     9    1
    17     9    10    1
    18    10    11    1
    19    11    14    1
    20    14    15   ar
    21    15    16   ar
    22    16    19    1
    23    19    20    1
    24    19    21    1
    25    19    22    1
    26    16    17   ar
    27    17    18   ar
    28    11    12    1
    29    12    13    1
    30     4    23    1
    31    23    24    1
    32    23    25    1
    33     4     5    1
    34    33    28    1
    35     5     1    1
    36    13     8    1
    37    18    14   ar
    38    26    27    1
@<TRIPOS>MOLECULE
*****
 35 38 0 0 0
SMALL
GASTEIGER

@<TRIPOS>ATOM
      1 C         141.9399  141.7775  160.1045 C.3     1  UNL1        0.0545
      2 C         143.0533  141.2805  159.2308 C.3     1  UNL1        0.0162
      3 C         143.3647  139.8697  159.6343 C.3     1  UNL1        0.0100
      4 C         142.4437  139.4948  160.7574 C.3     1  UNL1        0.0704
      5 C         141.5632  140.6739  161.0480 C.3     1  UNL1        0.0243
      6 C         141.6732  138.8451  161.8682 C.2     1  UNL1        0.2248
      7 O         140.6765  137.7675  161.5594 O.2     1  UNL1       -0.2749
      8 N         141.8992  139.2730  163.2880 N.am    1  UNL1       -0.2760
      9 C         142.8959  140.3506  163.5969 C.3     1  UNL1        0.1149
     10 C         143.1220  140.7786  165.0166 C.3     1  UNL1        0.1141
     11 N         142.3515  140.1289  166.1276 N.pl3   1  UNL1       -0.2847
     12 C         141.3548  139.0513  165.8187 C.3     1  UNL1        0.1141
     13 C         141.1287  138.6233  164.3990 C.3     1  UNL1        0.1149
     14 C         142.5776  140.5569  167.5473 C.ar    1  UNL1        0.1631
     15 N         142.9609  141.9338  168.0027 N.ar    1  UNL1       -0.2201
     16 C         143.0803  141.9110  169.4978 C.ar    1  UNL1        0.1610
     17 C         142.7709  140.5200  169.9664 C.ar    1  UNL1        0.0612
     18 S         142.4602  139.6832  168.7609 S.2     1  UNL1       -0.0510
     19 C         143.4451  143.0749  170.3710 C.3     1  UNL1        0.4354
     20 F         143.8100  144.2387  171.2442 F       1  UNL1       -0.1644
     21 F         144.8819  142.6446  170.3441 F       1  UNL1       -0.1644
     22 F         142.0084  143.5050  170.3979 F       1  UNL1       -0.1644
     23 C         143.1631  138.1800  160.6990 C.3     1  UNL1        0.0082
     24 C         142.9473  137.2579  159.5357 C.3     1  UNL1        0.0005
     25 C         143.8048  137.7248  161.2904 C.3     1  UNL1        0.0005
     26 N         141.3133  143.1391  160.0452 N.3     1  UNL1       -0.2975
     27 H         142.0326  143.7799  159.7101 H       1  UNL1        0.1232
     28 C         141.6076  144.5331  162.2178 C.3     1  UNL1        0.1591
     29 C         141.0255  145.1454  163.4572 C.3     1  UNL1        0.1729
     30 O         139.5669  144.9761  163.7635 O.3     1  UNL1       -0.3511
     31 C         138.6904  144.1944  162.8304 C.3     1  UNL1        0.1437
     32 C         139.2726  143.5821  161.5910 C.3     1  UNL1        0.0503
     33 C         140.7312  143.7514  161.2847 C.3     1  UNL1        0.0865
     34 C         144.0702  143.7525  162.4944 C.3     1  UNL1        0.1742
     35 O         143.0662  144.7025  161.9115 O.3     1  UNL1       -0.3496
@<TRIPOS>BOND
     1    34    35    1
     2    28    35    1
     3    28    29    1
     4    29    30    1
     5    30    31    1
     6    31    32    1
     7    32    33    1
     8    33    26    1
     9     1    26    1
    10     1     2    1
    11     2     3    1
    12     3     4    1
    13     4     6    1
    14     6     7    2
    15     6     8   am
    16     8     9    1
    17     9    10    1
    18    10    11    1
    19    11    14    1
    20    14    15   ar
    21    15    16   ar
    22    16    19    1
    23    19    20    1
    24    19    21    1
    25    19    22    1
    26    16    17   ar
    27    17    18   ar
    28    11    12    1
    29    12    13    1
    30     4    23    1
    31    23    24    1
    32    23    25    1
    33     4     5    1
    34    33    28    1
    35     5     1    1
    36    13     8    1
    37    18    14   ar
    38    26    27    1
