@<TRIPOS>MOLECULE
*****
 39 43 0 0 0
SMALL
GASTEIGER

@<TRIPOS>ATOM
      1 C         142.9605  139.6402  164.2157 C.ar    1  UNL1        0.0016
      2 C         143.6816  138.7055  165.1411 C.ar    1  UNL1        0.0016
      3 C         143.3544  138.6987  166.6049 C.ar    1  UNL1        0.0192
      4 C         142.3060  139.6266  167.1433 C.ar    1  UNL1        0.0845
      5 N         141.9787  139.6198  168.6072 N.ar    1  UNL1       -0.2240
      6 C         140.9303  140.5476  169.1457 C.ar    1  UNL1        0.1988
      7 N         140.2092  141.4824  168.2202 N.ar    1  UNL1       -0.2240
      8 C         140.5365  141.4892  166.7564 C.ar    1  UNL1        0.0844
      9 C         141.5849  140.5613  166.2180 C.ar    1  UNL1        0.0354
     10 C         141.9122  140.5681  164.7542 C.ar    1  UNL1        0.0030
     11 C         143.9423  139.6608  159.8241 C.ar    1  UNL1        0.2288
     12 N         143.9691  138.3728  160.5925 N.ar    1  UNL1       -0.2102
     13 C         143.6418  138.3660  162.0565 C.ar    1  UNL1        0.1020
     14 C         143.2878  139.6470  162.7518 C.ar    1  UNL1        0.0193
     15 C         143.2611  140.9350  161.9834 C.ar    1  UNL1        0.0101
     16 C         143.5883  140.9418  160.5195 C.ar    1  UNL1        0.1244
     17 C         143.5616  142.2298  159.7511 C.3     1  UNL1        0.4229
     18 F         143.5348  143.5177  158.9826 F       1  UNL1       -0.1657
     19 F         144.9405  142.5531  160.2450 F       1  UNL1       -0.1657
     20 F         142.1826  141.9064  159.2571 F       1  UNL1       -0.1657
     21 C         143.2086  139.3361  157.3531 C.3     1  UNL1        0.2542
     22 O         144.2695  139.6676  158.3603 O.3     1  UNL1       -0.4562
     23 C         139.8154  142.4238  165.8311 C.ar    1  UNL1        0.0179
     24 C         139.5076  143.8247  166.2702 C.ar    1  UNL1        0.0015
     25 C         138.7865  144.7594  165.3447 C.ar    1  UNL1        0.0002
     26 C         138.3732  144.2932  163.9803 C.ar    1  UNL1        0.0045
     27 C         138.6810  142.8924  163.5412 C.ar    1  UNL1        0.0536
     28 C         139.4021  141.9577  164.4665 C.ar    1  UNL1        0.0060
     29 C         138.2676  142.4262  162.1766 C.2     1  UNL1        0.2491
     30 O         137.2243  141.3581  162.0331 O.2     1  UNL1       -0.2699
     31 N         138.8976  143.0281  160.9557 N.am    1  UNL1       -0.2726
     32 C         139.9410  144.0962  161.0992 C.3     1  UNL1        0.1152
     33 C         140.5709  144.6981  159.8783 C.3     1  UNL1        0.1149
     34 N         140.1576  144.2320  158.5137 N.am    1  UNL1       -0.2760
     35 C         140.7876  144.8339  157.2928 C.2     1  UNL1        0.2262
     36 C         141.8309  145.9020  157.4363 C.3     1  UNL1        0.0948
     37 O         140.3742  144.3677  155.9283 O.2     1  UNL1       -0.2749
     38 C         139.1143  143.1639  158.3702 C.3     1  UNL1        0.1149
     39 C         138.4843  142.5619  159.5912 C.3     1  UNL1        0.1152
@<TRIPOS>BOND
     1    21    22    1
     2    22    11    1
     3    11    12   ar
     4    12    13   ar
     5    13    14   ar
     6    14     1    1
     7     1     2   ar
     8     2     3   ar
     9     3     4   ar
    10     4     5   ar
    11     5     6   ar
    12     6     7   ar
    13     7     8   ar
    14     8    23    1
    15    23    24   ar
    16    24    25   ar
    17    25    26   ar
    18    26    27   ar
    19    27    29    1
    20    29    30    2
    21    29    31   am
    22    31    32    1
    23    32    33    1
    24    33    34    1
    25    34    35   am
    26    35    36    1
    27    35    37    2
    28    34    38    1
    29    38    39    1
    30    27    28   ar
    31     8     9   ar
    32     9    10   ar
    33    14    15   ar
    34    15    16   ar
    35    16    17    1
    36    17    18    1
    37    17    19    1
    38    17    20    1
    39    16    11   ar
    40    10     1   ar
    41     9     4   ar
    42    28    23   ar
    43    39    31    1
@<TRIPOS>MOLECULE
*****
 39 43 0 0 0
SMALL
GASTEIGER

@<TRIPOS>ATOM
      1 C         139.4408  139.1923  164.3342 C.ar    1  UNL1        0.0016
      2 C         138.5257  138.3779  165.1998 C.ar    1  UNL1        0.0016
      3 C         138.4598  138.6391  166.6754 C.ar    1  UNL1        0.0192
      4 C         139.3091  139.7146  167.2854 C.ar    1  UNL1        0.0845
      5 N         139.2432  139.9757  168.7610 N.ar    1  UNL1       -0.2240
      6 C         140.0924  141.0513  169.3710 C.ar    1  UNL1        0.1988
      7 N         141.0075  141.8657  168.5053 N.ar    1  UNL1       -0.2240
      8 C         141.0734  141.6045  167.0297 C.ar    1  UNL1        0.0844
      9 C         140.2241  140.5290  166.4197 C.ar    1  UNL1        0.0354
     10 C         140.2900  140.2679  164.9442 C.ar    1  UNL1        0.0030
     11 C         139.6385  138.4090  159.9072 C.ar    1  UNL1        0.2288
     12 N         138.3161  138.3849  160.6148 N.ar    1  UNL1       -0.2102
     13 C         138.2502  138.6460  162.0905 C.ar    1  UNL1        0.1020
     14 C         139.5067  138.9312  162.8585 C.ar    1  UNL1        0.0193
     15 C         140.8291  138.9553  162.1509 C.ar    1  UNL1        0.0101
     16 C         140.8951  138.6943  160.6753 C.ar    1  UNL1        0.1244
     17 C         142.2175  138.7184  159.9678 C.3     1  UNL1        0.4229
     18 F         143.5399  138.7425  159.2602 F       1  UNL1       -0.1657
     19 F         141.8938  140.0723  159.4091 F       1  UNL1       -0.1657
     20 F         142.5411  137.3644  160.5265 F       1  UNL1       -0.1657
     21 C         139.3772  139.2435  157.4608 C.3     1  UNL1        0.2542
     22 O         139.7045  138.1479  158.4316 O.3     1  UNL1       -0.4562
     23 C         141.9884  142.4189  166.1641 C.ar    1  UNL1        0.0179
     24 C         143.4239  142.6053  166.5573 C.ar    1  UNL1        0.0015
     25 C         144.3390  143.4198  165.6916 C.ar    1  UNL1        0.0002
     26 C         143.8186  144.0478  164.4328 C.ar    1  UNL1        0.0045
     27 C         142.3831  143.8614  164.0396 C.ar    1  UNL1        0.0536
     28 C         141.4680  143.0470  164.9052 C.ar    1  UNL1        0.0060
     29 C         141.8627  144.4895  162.7806 C.2     1  UNL1        0.2491
     30 O         140.8487  145.5922  162.8563 O.2     1  UNL1       -0.2699
     31 N         142.3563  144.0148  161.4461 N.am    1  UNL1       -0.2726
     32 C         143.3704  142.9121  161.3704 C.3     1  UNL1        0.1152
     33 C         143.8640  142.4374  160.0359 C.3     1  UNL1        0.1149
     34 N         143.3436  143.0655  158.7770 N.am    1  UNL1       -0.2760
     35 C         143.8373  142.5908  157.4425 C.2     1  UNL1        0.2262
     36 C         144.8513  141.4881  157.3668 C.3     1  UNL1        0.0948
     37 O         143.3169  143.2189  156.1837 O.2     1  UNL1       -0.2749
     38 C         142.3296  144.1682  158.8527 C.3     1  UNL1        0.1149
     39 C         141.8360  144.6429  160.1873 C.3     1  UNL1        0.1152
@<TRIPOS>BOND
     1    21    22    1
     2    22    11    1
     3    11    12   ar
     4    12    13   ar
     5    13    14   ar
     6    14     1    1
     7     1     2   ar
     8     2     3   ar
     9     3     4   ar
    10     4     5   ar
    11     5     6   ar
    12     6     7   ar
    13     7     8   ar
    14     8    23    1
    15    23    24   ar
    16    24    25   ar
    17    25    26   ar
    18    26    27   ar
    19    27    29    1
    20    29    30    2
    21    29    31   am
    22    31    32    1
    23    32    33    1
    24    33    34    1
    25    34    35   am
    26    35    36    1
    27    35    37    2
    28    34    38    1
    29    38    39    1
    30    27    28   ar
    31     8     9   ar
    32     9    10   ar
    33    14    15   ar
    34    15    16   ar
    35    16    17    1
    36    17    18    1
    37    17    19    1
    38    17    20    1
    39    16    11   ar
    40    10     1   ar
    41     9     4   ar
    42    28    23   ar
    43    39    31    1
@<TRIPOS>MOLECULE
*****
 39 43 0 0 0
SMALL
GASTEIGER

@<TRIPOS>ATOM
      1 C         139.6373  143.1819  164.0462 C.ar    1  UNL1        0.0016
      2 C         138.8079  144.4308  163.9990 C.ar    1  UNL1        0.0016
      3 C         138.8440  145.3096  162.7840 C.ar    1  UNL1        0.0192
      4 C         139.7096  144.9395  161.6161 C.ar    1  UNL1        0.0845
      5 N         139.7456  145.8183  160.4010 N.ar    1  UNL1       -0.2240
      6 C         140.6112  145.4482  159.2332 C.ar    1  UNL1        0.1988
      7 N         141.4406  144.1992  159.2804 N.ar    1  UNL1       -0.2240
      8 C         141.4044  143.3204  160.4954 C.ar    1  UNL1        0.0844
      9 C         140.5389  143.6906  161.6633 C.ar    1  UNL1        0.0354
     10 C         140.5028  142.8118  162.8783 C.ar    1  UNL1        0.0030
     11 C         139.5290  140.5453  167.6914 C.ar    1  UNL1        0.2288
     12 N         140.0566  141.9457  167.7941 N.ar    1  UNL1       -0.2102
     13 C         140.0927  142.8246  166.5790 C.ar    1  UNL1        0.1020
     14 C         139.6012  142.3030  165.2613 C.ar    1  UNL1        0.0193
     15 C         139.0736  140.9027  165.1586 C.ar    1  UNL1        0.0101
     16 C         139.0375  140.0238  166.3736 C.ar    1  UNL1        0.1244
     17 C         138.5099  138.6234  166.2709 C.3     1  UNL1        0.4229
     18 F         137.9823  137.2230  166.1682 F       1  UNL1       -0.1657
     19 F         137.2947  139.0239  167.0538 F       1  UNL1       -0.1657
     20 F         139.7251  138.2230  165.4880 F       1  UNL1       -0.1657
     21 C         138.6161  140.0288  170.0682 C.3     1  UNL1        0.2542
     22 O         139.4929  139.6665  168.9064 O.3     1  UNL1       -0.4562
     23 C         142.2338  142.0715  160.5426 C.ar    1  UNL1        0.0179
     24 C         143.2198  141.7842  159.4493 C.ar    1  UNL1        0.0015
     25 C         144.0492  140.5352  159.4965 C.ar    1  UNL1        0.0002
     26 C         143.8926  139.5736  160.6370 C.ar    1  UNL1        0.0045
     27 C         142.9067  139.8609  161.7304 C.ar    1  UNL1        0.0536
     28 C         142.0773  141.1099  161.6832 C.ar    1  UNL1        0.0060
     29 C         142.7502  138.8993  162.8709 C.2     1  UNL1        0.2491
     30 O         142.4949  137.4467  162.5975 O.2     1  UNL1       -0.2699
     31 N         142.8490  139.3902  164.2848 N.am    1  UNL1       -0.2726
     32 C         143.1043  140.8428  164.5583 C.3     1  UNL1        0.1152
     33 C         143.2031  141.3338  165.9721 C.3     1  UNL1        0.1149
     34 N         143.0466  140.3721  167.1127 N.am    1  UNL1       -0.2760
     35 C         143.1453  140.8631  168.5266 C.2     1  UNL1        0.2262
     36 C         143.4007  142.3157  168.8000 C.3     1  UNL1        0.0948
     37 O         142.9888  139.9015  169.6671 O.2     1  UNL1       -0.2749
     38 C         142.7912  138.9195  166.8393 C.3     1  UNL1        0.1149
     39 C         142.6924  138.4286  165.4253 C.3     1  UNL1        0.1152
@<TRIPOS>BOND
     1    21    22    1
     2    22    11    1
     3    11    12   ar
     4    12    13   ar
     5    13    14   ar
     6    14     1    1
     7     1     2   ar
     8     2     3   ar
     9     3     4   ar
    10     4     5   ar
    11     5     6   ar
    12     6     7   ar
    13     7     8   ar
    14     8    23    1
    15    23    24   ar
    16    24    25   ar
    17    25    26   ar
    18    26    27   ar
    19    27    29    1
    20    29    30    2
    21    29    31   am
    22    31    32    1
    23    32    33    1
    24    33    34    1
    25    34    35   am
    26    35    36    1
    27    35    37    2
    28    34    38    1
    29    38    39    1
    30    27    28   ar
    31     8     9   ar
    32     9    10   ar
    33    14    15   ar
    34    15    16   ar
    35    16    17    1
    36    17    18    1
    37    17    19    1
    38    17    20    1
    39    16    11   ar
    40    10     1   ar
    41     9     4   ar
    42    28    23   ar
    43    39    31    1
@<TRIPOS>MOLECULE
*****
 39 43 0 0 0
SMALL
GASTEIGER

@<TRIPOS>ATOM
      1 C         140.0614  143.1408  165.3830 C.ar    1  UNL1        0.0016
      2 C         138.9704  144.1671  165.4627 C.ar    1  UNL1        0.0016
      3 C         138.6914  145.0577  164.2884 C.ar    1  UNL1        0.0192
      4 C         139.5033  144.9219  163.0344 C.ar    1  UNL1        0.0845
      5 N         139.2241  145.8125  161.8601 N.ar    1  UNL1       -0.2240
      6 C         140.0360  145.6767  160.6062 C.ar    1  UNL1        0.1988
      7 N         141.1270  144.6503  160.5265 N.ar    1  UNL1       -0.2240
      8 C         141.4061  143.7597  161.7008 C.ar    1  UNL1        0.0844
      9 C         140.5942  143.8955  162.9547 C.ar    1  UNL1        0.0354
     10 C         140.8733  143.0050  164.1290 C.ar    1  UNL1        0.0030
     11 C         140.8987  140.4689  168.9059 C.ar    1  UNL1        0.2288
     12 N         140.1337  139.9404  167.7289 N.ar    1  UNL1       -0.2102
     13 C         139.8545  140.8310  166.5546 C.ar    1  UNL1        0.1020
     14 C         140.3405  142.2501  166.5573 C.ar    1  UNL1        0.0193
     15 C         141.1056  142.7786  167.7343 C.ar    1  UNL1        0.0101
     16 C         141.3847  141.8881  168.9086 C.ar    1  UNL1        0.1244
     17 C         142.1497  142.4166  170.0856 C.3     1  UNL1        0.4229
     18 F         142.9148  142.9451  171.2626 F       1  UNL1       -0.1657
     19 F         140.8625  142.8219  170.7403 F       1  UNL1       -0.1657
     20 F         143.4370  142.0113  169.4308 F       1  UNL1       -0.1657
     21 C         142.4508  138.7868  170.1352 C.3     1  UNL1        0.2542
     22 O         141.1778  139.5784  170.0802 O.3     1  UNL1       -0.4562
     23 C         142.4970  142.7334  161.6211 C.ar    1  UNL1        0.0179
     24 C         143.8892  143.0833  162.0562 C.ar    1  UNL1        0.0015
     25 C         144.9802  142.0569  161.9765 C.ar    1  UNL1        0.0002
     26 C         144.6789  140.6806  161.4617 C.ar    1  UNL1        0.0045
     27 C         143.2867  140.3307  161.0266 C.ar    1  UNL1        0.0536
     28 C         142.1958  141.3570  161.1063 C.ar    1  UNL1        0.0060
     29 C         142.9855  138.9543  160.5118 C.2     1  UNL1        0.2491
     30 O         142.6837  137.8433  161.4734 O.2     1  UNL1       -0.2699
     31 N         142.9861  138.6890  159.0355 N.am    1  UNL1       -0.2726
     32 C         143.2879  139.8000  158.0739 C.3     1  UNL1        0.1152
     33 C         143.2885  139.5347  156.5976 C.3     1  UNL1        0.1149
     34 N         142.9872  138.1583  156.0828 N.am    1  UNL1       -0.2760
     35 C         142.9878  137.8930  154.6065 C.2     1  UNL1        0.2262
     36 C         143.2896  139.0040  153.6449 C.3     1  UNL1        0.0948
     37 O         142.6866  136.5167  154.0917 O.2     1  UNL1       -0.2749
     38 C         142.6854  137.0473  157.0443 C.3     1  UNL1        0.1149
     39 C         142.6849  137.3127  158.5207 C.3     1  UNL1        0.1152
@<TRIPOS>BOND
     1    21    22    1
     2    22    11    1
     3    11    12   ar
     4    12    13   ar
     5    13    14   ar
     6    14     1    1
     7     1     2   ar
     8     2     3   ar
     9     3     4   ar
    10     4     5   ar
    11     5     6   ar
    12     6     7   ar
    13     7     8   ar
    14     8    23    1
    15    23    24   ar
    16    24    25   ar
    17    25    26   ar
    18    26    27   ar
    19    27    29    1
    20    29    30    2
    21    29    31   am
    22    31    32    1
    23    32    33    1
    24    33    34    1
    25    34    35   am
    26    35    36    1
    27    35    37    2
    28    34    38    1
    29    38    39    1
    30    27    28   ar
    31     8     9   ar
    32     9    10   ar
    33    14    15   ar
    34    15    16   ar
    35    16    17    1
    36    17    18    1
    37    17    19    1
    38    17    20    1
    39    16    11   ar
    40    10     1   ar
    41     9     4   ar
    42    28    23   ar
    43    39    31    1
@<TRIPOS>MOLECULE
*****
 39 43 0 0 0
SMALL
GASTEIGER

@<TRIPOS>ATOM
      1 C         140.0064  139.3357  165.5155 C.ar    1  UNL1        0.0016
      2 C         139.7086  137.8677  165.4366 C.ar    1  UNL1        0.0016
      3 C         138.9573  137.3171  164.2609 C.ar    1  UNL1        0.0192
      4 C         138.5038  138.2344  163.1641 C.ar    1  UNL1        0.0845
      5 N         137.7525  137.6837  161.9884 N.ar    1  UNL1       -0.2240
      6 C         137.2989  138.6010  160.8917 C.ar    1  UNL1        0.1988
      7 N         137.5968  140.0690  160.9707 N.ar    1  UNL1       -0.2240
      8 C         138.3481  140.6197  162.1463 C.ar    1  UNL1        0.0844
      9 C         138.8016  139.7024  163.2431 C.ar    1  UNL1        0.0354
     10 C         139.5529  140.2530  164.4188 C.ar    1  UNL1        0.0030
     11 C         142.2603  140.9879  169.0426 C.ar    1  UNL1        0.2288
     12 N         142.9246  140.0099  168.1195 N.ar    1  UNL1       -0.2102
     13 C         142.1732  139.4591  166.9437 C.ar    1  UNL1        0.1020
     14 C         140.7577  139.8865  166.6912 C.ar    1  UNL1        0.0193
     15 C         140.0935  140.8645  167.6144 C.ar    1  UNL1        0.0101
     16 C         140.8448  141.4152  168.7901 C.ar    1  UNL1        0.1244
     17 C         140.1806  142.3933  169.7132 C.3     1  UNL1        0.4229
     18 F         139.5164  143.3713  170.6364 F       1  UNL1       -0.1657
     19 F         140.9754  143.5093  169.1027 F       1  UNL1       -0.1657
     20 F         139.3858  141.2772  170.3238 F       1  UNL1       -0.1657
     21 C         144.1297  142.5151  170.0032 C.3     1  UNL1        0.2542
     22 O         143.0116  141.5387  170.2183 O.3     1  UNL1       -0.4562
     23 C         138.6459  142.0877  162.2253 C.ar    1  UNL1        0.0179
     24 C         137.8152  142.9753  163.1040 C.ar    1  UNL1        0.0015
     25 C         138.1131  144.4434  163.1829 C.ar    1  UNL1        0.0002
     26 C         139.2415  145.0238  162.3831 C.ar    1  UNL1        0.0045
     27 C         140.0721  144.1362  161.5044 C.ar    1  UNL1        0.0536
     28 C         139.7743  142.6682  161.4254 C.ar    1  UNL1        0.0060
     29 C         141.2006  144.7166  160.7045 C.2     1  UNL1        0.2491
     30 O         142.4553  145.1650  161.3936 O.2     1  UNL1       -0.2699
     31 N         141.0744  144.8487  159.2157 N.am    1  UNL1       -0.2726
     32 C         139.8198  144.4003  158.5267 C.3     1  UNL1        0.1152
     33 C         139.6936  144.5324  157.0379 C.3     1  UNL1        0.1149
     34 N         140.8220  145.1128  156.2381 N.am    1  UNL1       -0.2760
     35 C         140.6958  145.2449  154.7493 C.2     1  UNL1        0.2262
     36 C         139.4412  144.7965  154.0602 C.3     1  UNL1        0.0948
     37 O         141.8243  145.8254  153.9495 O.2     1  UNL1       -0.2749
     38 C         142.0767  145.5612  156.9271 C.3     1  UNL1        0.1149
     39 C         142.2029  145.4291  158.4160 C.3     1  UNL1        0.1152
@<TRIPOS>BOND
     1    21    22    1
     2    22    11    1
     3    11    12   ar
     4    12    13   ar
     5    13    14   ar
     6    14     1    1
     7     1     2   ar
     8     2     3   ar
     9     3     4   ar
    10     4     5   ar
    11     5     6   ar
    12     6     7   ar
    13     7     8   ar
    14     8    23    1
    15    23    24   ar
    16    24    25   ar
    17    25    26   ar
    18    26    27   ar
    19    27    29    1
    20    29    30    2
    21    29    31   am
    22    31    32    1
    23    32    33    1
    24    33    34    1
    25    34    35   am
    26    35    36    1
    27    35    37    2
    28    34    38    1
    29    38    39    1
    30    27    28   ar
    31     8     9   ar
    32     9    10   ar
    33    14    15   ar
    34    15    16   ar
    35    16    17    1
    36    17    18    1
    37    17    19    1
    38    17    20    1
    39    16    11   ar
    40    10     1   ar
    41     9     4   ar
    42    28    23   ar
    43    39    31    1
@<TRIPOS>MOLECULE
*****
 39 43 0 0 0
SMALL
GASTEIGER

@<TRIPOS>ATOM
      1 C         139.6652  143.1133  164.5287 C.ar    1  UNL1        0.0016
      2 C         138.6870  144.2485  164.4634 C.ar    1  UNL1        0.0016
      3 C         138.6626  145.1495  163.2645 C.ar    1  UNL1        0.0192
      4 C         139.6164  144.9153  162.1307 C.ar    1  UNL1        0.0845
      5 N         139.5919  145.8164  160.9317 N.ar    1  UNL1       -0.2240
      6 C         140.5458  145.5822  159.7980 C.ar    1  UNL1        0.1988
      7 N         141.5241  144.4469  159.8633 N.ar    1  UNL1       -0.2240
      8 C         141.5485  143.5460  161.0622 C.ar    1  UNL1        0.0844
      9 C         140.5947  143.7801  162.1960 C.ar    1  UNL1        0.0354
     10 C         140.6191  142.8792  163.3949 C.ar    1  UNL1        0.0030
     11 C         139.7386  140.4102  168.1256 C.ar    1  UNL1        0.2288
     12 N         140.3892  141.7602  168.1887 N.ar    1  UNL1       -0.2102
     13 C         140.3648  142.6613  166.9897 C.ar    1  UNL1        0.1020
     14 C         139.6897  142.2123  165.7277 C.ar    1  UNL1        0.0193
     15 C         139.0391  140.8622  165.6646 C.ar    1  UNL1        0.0101
     16 C         139.0636  139.9611  166.8635 C.ar    1  UNL1        0.1244
     17 C         138.4129  138.6110  166.8005 C.3     1  UNL1        0.4229
     18 F         137.7623  137.2610  166.7374 F       1  UNL1       -0.1657
     19 F         139.4032  138.1825  165.7584 F       1  UNL1       -0.1657
     20 F         137.4227  139.0396  167.8425 F       1  UNL1       -0.1657
     21 C         140.1970  140.0449  170.6566 C.3     1  UNL1        0.2542
     22 O         139.7631  139.5091  169.3245 O.3     1  UNL1       -0.4562
     23 C         142.5268  142.4108  161.1275 C.ar    1  UNL1        0.0179
     24 C         143.8488  142.5983  161.8109 C.ar    1  UNL1        0.0015
     25 C         144.8271  141.4630  161.8761 C.ar    1  UNL1        0.0002
     26 C         144.4833  140.1403  161.2579 C.ar    1  UNL1        0.0045
     27 C         143.1613  139.9528  160.5745 C.ar    1  UNL1        0.0536
     28 C         142.1830  141.0880  160.5093 C.ar    1  UNL1        0.0060
     29 C         142.8175  138.6300  159.9563 C.2     1  UNL1        0.2491
     30 O         142.5023  137.4527  160.8308 O.2     1  UNL1       -0.2699
     31 N         142.7891  138.4844  158.4637 N.am    1  UNL1       -0.2726
     32 C         143.1043  139.6617  157.5892 C.3     1  UNL1        0.1152
     33 C         143.0758  139.5162  156.0966 C.3     1  UNL1        0.1149
     34 N         142.7321  138.1933  155.4783 N.am    1  UNL1       -0.2760
     35 C         142.7036  138.0478  153.9857 C.2     1  UNL1        0.2262
     36 C         143.0188  139.2251  153.1112 C.3     1  UNL1        0.0948
     37 O         142.3599  136.7251  153.3676 O.2     1  UNL1       -0.2749
     38 C         142.4168  137.0161  156.3528 C.3     1  UNL1        0.1149
     39 C         142.4453  137.1617  157.8455 C.3     1  UNL1        0.1152
@<TRIPOS>BOND
     1    21    22    1
     2    22    11    1
     3    11    12   ar
     4    12    13   ar
     5    13    14   ar
     6    14     1    1
     7     1     2   ar
     8     2     3   ar
     9     3     4   ar
    10     4     5   ar
    11     5     6   ar
    12     6     7   ar
    13     7     8   ar
    14     8    23    1
    15    23    24   ar
    16    24    25   ar
    17    25    26   ar
    18    26    27   ar
    19    27    29    1
    20    29    30    2
    21    29    31   am
    22    31    32    1
    23    32    33    1
    24    33    34    1
    25    34    35   am
    26    35    36    1
    27    35    37    2
    28    34    38    1
    29    38    39    1
    30    27    28   ar
    31     8     9   ar
    32     9    10   ar
    33    14    15   ar
    34    15    16   ar
    35    16    17    1
    36    17    18    1
    37    17    19    1
    38    17    20    1
    39    16    11   ar
    40    10     1   ar
    41     9     4   ar
    42    28    23   ar
    43    39    31    1
@<TRIPOS>MOLECULE
*****
 39 43 0 0 0
SMALL
GASTEIGER

@<TRIPOS>ATOM
      1 C         140.9401  138.7114  162.7901 C.ar    1  UNL1        0.0016
      2 C         140.2523  137.6150  163.5482 C.ar    1  UNL1        0.0016
      3 C         139.7966  137.8496  164.9579 C.ar    1  UNL1        0.0192
      4 C         140.0287  139.1806  165.6095 C.ar    1  UNL1        0.0845
      5 N         139.5730  139.4152  167.0192 N.ar    1  UNL1       -0.2240
      6 C         139.8052  140.7462  167.6708 C.ar    1  UNL1        0.1988
      7 N         140.4930  141.8426  166.9126 N.ar    1  UNL1       -0.2240
      8 C         140.9487  141.6080  165.5029 C.ar    1  UNL1        0.0844
      9 C         140.7165  140.2770  164.8513 C.ar    1  UNL1        0.0354
     10 C         141.1722  140.0424  163.4417 C.ar    1  UNL1        0.0030
     11 C         142.3072  138.0077  158.5608 C.ar    1  UNL1        0.2288
     12 N         143.2272  137.7060  159.7065 N.ar    1  UNL1       -0.2102
     13 C         142.7715  137.9406  161.1162 C.ar    1  UNL1        0.1020
     14 C         141.3958  138.4768  161.3803 C.ar    1  UNL1        0.0193
     15 C         140.4757  138.7785  160.2347 C.ar    1  UNL1        0.0101
     16 C         140.9314  138.5439  158.8250 C.ar    1  UNL1        0.1244
     17 C         140.0113  138.8456  157.6794 C.3     1  UNL1        0.4229
     18 F         139.0912  139.1473  156.5337 F       1  UNL1       -0.1657
     19 F         140.3800  140.2971  157.7655 F       1  UNL1       -0.1657
     20 F         139.6426  137.3942  157.5932 F       1  UNL1       -0.1657
     21 C         142.8117  136.3785  156.6010 C.3     1  UNL1        0.2542
     22 O         142.7628  137.7731  157.1511 O.3     1  UNL1       -0.4562
     23 C         141.6365  142.7044  164.7448 C.ar    1  UNL1        0.0179
     24 C         143.0427  143.0910  165.0958 C.ar    1  UNL1        0.0015
     25 C         143.7305  144.1875  164.3376 C.ar    1  UNL1        0.0002
     26 C         143.0121  144.8972  163.2285 C.ar    1  UNL1        0.0045
     27 C         141.6059  144.5106  162.8775 C.ar    1  UNL1        0.0536
     28 C         140.9181  143.4142  163.6356 C.ar    1  UNL1        0.0060
     29 C         140.8876  145.2205  161.7684 C.2     1  UNL1        0.2491
     30 O         140.0197  146.4050  162.0743 O.2     1  UNL1       -0.2699
     31 N         141.0371  144.7457  160.3534 N.am    1  UNL1       -0.2726
     32 C         141.9051  143.5612  160.0475 C.3     1  UNL1        0.1152
     33 C         142.0546  143.0865  158.6325 C.3     1  UNL1        0.1149
     34 N         141.3363  143.7963  157.5233 N.am    1  UNL1       -0.2760
     35 C         141.4858  143.3216  156.1083 C.2     1  UNL1        0.2262
     36 C         142.3537  142.1371  155.8024 C.3     1  UNL1        0.0948
     37 O         140.7675  144.0314  154.9993 O.2     1  UNL1       -0.2749
     38 C         140.4683  144.9809  157.8292 C.3     1  UNL1        0.1149
     39 C         140.3188  145.4556  159.2443 C.3     1  UNL1        0.1152
@<TRIPOS>BOND
     1    21    22    1
     2    22    11    1
     3    11    12   ar
     4    12    13   ar
     5    13    14   ar
     6    14     1    1
     7     1     2   ar
     8     2     3   ar
     9     3     4   ar
    10     4     5   ar
    11     5     6   ar
    12     6     7   ar
    13     7     8   ar
    14     8    23    1
    15    23    24   ar
    16    24    25   ar
    17    25    26   ar
    18    26    27   ar
    19    27    29    1
    20    29    30    2
    21    29    31   am
    22    31    32    1
    23    32    33    1
    24    33    34    1
    25    34    35   am
    26    35    36    1
    27    35    37    2
    28    34    38    1
    29    38    39    1
    30    27    28   ar
    31     8     9   ar
    32     9    10   ar
    33    14    15   ar
    34    15    16   ar
    35    16    17    1
    36    17    18    1
    37    17    19    1
    38    17    20    1
    39    16    11   ar
    40    10     1   ar
    41     9     4   ar
    42    28    23   ar
    43    39    31    1
@<TRIPOS>MOLECULE
*****
 39 43 0 0 0
SMALL
GASTEIGER

@<TRIPOS>ATOM
      1 C         141.1232  139.1150  165.1462 C.ar    1  UNL1        0.0016
      2 C         141.0062  137.6353  164.9306 C.ar    1  UNL1        0.0016
      3 C         141.2505  137.0541  163.5696 C.ar    1  UNL1        0.0192
      4 C         141.6117  137.9526  162.4241 C.ar    1  UNL1        0.0845
      5 N         141.8560  137.3713  161.0630 N.ar    1  UNL1       -0.2240
      6 C         142.2173  138.2699  159.9176 C.ar    1  UNL1        0.1988
      7 N         142.3342  139.7498  160.1332 N.ar    1  UNL1       -0.2240
      8 C         142.0900  140.3310  161.4943 C.ar    1  UNL1        0.0844
      9 C         141.7287  139.4324  162.6397 C.ar    1  UNL1        0.0354
     10 C         141.4844  140.0136  164.0008 C.ar    1  UNL1        0.0030
     11 C         140.3903  140.8589  169.2294 C.ar    1  UNL1        0.2288
     12 N         139.2569  140.2470  168.4607 N.ar    1  UNL1       -0.2102
     13 C         139.5012  139.6658  167.0997 C.ar    1  UNL1        0.1020
     14 C         140.8789  139.6963  166.5073 C.ar    1  UNL1        0.0193
     15 C         142.0124  140.3082  167.2760 C.ar    1  UNL1        0.0101
     16 C         141.7681  140.8895  168.6370 C.ar    1  UNL1        0.1244
     17 C         142.9016  141.5013  169.4057 C.3     1  UNL1        0.4229
     18 F         144.0351  142.1131  170.1744 F       1  UNL1       -0.1657
     19 F         143.1912  140.1718  170.0369 F       1  UNL1       -0.1657
     20 F         142.6120  142.8308  168.7744 F       1  UNL1       -0.1657
     21 C         139.8136  142.8956  170.7357 C.3     1  UNL1        0.2542
     22 O         140.1461  141.4402  170.5904 O.3     1  UNL1       -0.4562
     23 C         142.2069  141.8108  161.7098 C.ar    1  UNL1        0.0179
     24 C         143.1649  142.3463  162.7323 C.ar    1  UNL1        0.0015
     25 C         143.2818  143.8262  162.9479 C.ar    1  UNL1        0.0002
     26 C         142.4408  144.7704  162.1410 C.ar    1  UNL1        0.0045
     27 C         141.4828  144.2348  161.1185 C.ar    1  UNL1        0.0536
     28 C         141.3659  142.7551  160.9029 C.ar    1  UNL1        0.0060
     29 C         140.6418  145.1791  160.3116 C.2     1  UNL1        0.2491
     30 O         139.5604  145.9769  160.9781 O.2     1  UNL1       -0.2699
     31 N         140.8822  145.3257  158.8383 N.am    1  UNL1       -0.2726
     32 C         141.9636  144.5279  158.1718 C.3     1  UNL1        0.1152
     33 C         142.2039  144.6744  156.6985 C.3     1  UNL1        0.1149
     34 N         141.3629  145.6187  155.8916 N.am    1  UNL1       -0.2760
     35 C         141.6033  145.7653  154.4183 C.2     1  UNL1        0.2262
     36 C         142.6847  144.9675  153.7518 C.3     1  UNL1        0.0948
     37 O         140.7622  146.7095  153.6114 O.2     1  UNL1       -0.2749
     38 C         140.2815  146.4165  156.5581 C.3     1  UNL1        0.1149
     39 C         140.0412  146.2699  158.0315 C.3     1  UNL1        0.1152
@<TRIPOS>BOND
     1    21    22    1
     2    22    11    1
     3    11    12   ar
     4    12    13   ar
     5    13    14   ar
     6    14     1    1
     7     1     2   ar
     8     2     3   ar
     9     3     4   ar
    10     4     5   ar
    11     5     6   ar
    12     6     7   ar
    13     7     8   ar
    14     8    23    1
    15    23    24   ar
    16    24    25   ar
    17    25    26   ar
    18    26    27   ar
    19    27    29    1
    20    29    30    2
    21    29    31   am
    22    31    32    1
    23    32    33    1
    24    33    34    1
    25    34    35   am
    26    35    36    1
    27    35    37    2
    28    34    38    1
    29    38    39    1
    30    27    28   ar
    31     8     9   ar
    32     9    10   ar
    33    14    15   ar
    34    15    16   ar
    35    16    17    1
    36    17    18    1
    37    17    19    1
    38    17    20    1
    39    16    11   ar
    40    10     1   ar
    41     9     4   ar
    42    28    23   ar
    43    39    31    1
@<TRIPOS>MOLECULE
*****
 39 43 0 0 0
SMALL
GASTEIGER

@<TRIPOS>ATOM
      1 C         142.7354  139.3398  164.2558 C.ar    1  UNL1        0.0016
      2 C         143.3172  138.3653  165.2366 C.ar    1  UNL1        0.0016
      3 C         143.2150  138.6319  166.7091 C.ar    1  UNL1        0.0192
      4 C         142.5311  139.8730  167.2009 C.ar    1  UNL1        0.0845
      5 N         142.4289  140.1396  168.6736 N.ar    1  UNL1       -0.2240
      6 C         141.7449  141.3807  169.1654 C.ar    1  UNL1        0.1988
      7 N         141.1631  142.3552  168.1846 N.ar    1  UNL1       -0.2240
      8 C         141.2652  142.0885  166.7120 C.ar    1  UNL1        0.0844
      9 C         141.9492  140.8475  166.2202 C.ar    1  UNL1        0.0354
     10 C         142.0514  140.5808  164.7477 C.ar    1  UNL1        0.0030
     11 C         143.0417  138.5400  159.8380 C.ar    1  UNL1        0.2288
     12 N         144.1920  138.2081  160.7418 N.ar    1  UNL1       -0.2102
     13 C         144.0898  138.4747  162.2144 C.ar    1  UNL1        0.1020
     14 C         142.8375  139.0732  162.7832 C.ar    1  UNL1        0.0193
     15 C         141.6873  139.4050  161.8794 C.ar    1  UNL1        0.0101
     16 C         141.7894  139.1385  160.4069 C.ar    1  UNL1        0.1244
     17 C         140.6391  139.4703  159.5031 C.3     1  UNL1        0.4229
     18 F         139.4889  139.8022  158.5993 F       1  UNL1       -0.1657
     19 F         141.3449  140.7187  159.0633 F       1  UNL1       -0.1657
     20 F         139.9334  138.2219  159.9428 F       1  UNL1       -0.1657
     21 C         142.7001  136.9527  157.8099 C.3     1  UNL1        0.2542
     22 O         143.1438  138.2734  158.3655 O.3     1  UNL1       -0.4562
     23 C         140.6834  143.0630  165.7313 C.ar    1  UNL1        0.0179
     24 C         139.4241  143.8049  166.0685 C.ar    1  UNL1        0.0015
     25 C         138.8423  144.7794  165.0877 C.ar    1  UNL1        0.0002
     26 C         139.5198  145.0119  163.7698 C.ar    1  UNL1        0.0045
     27 C         140.7790  144.2700  163.4326 C.ar    1  UNL1        0.0536
     28 C         141.3609  143.2955  164.4133 C.ar    1  UNL1        0.0060
     29 C         141.4565  144.5026  162.1146 C.2     1  UNL1        0.2491
     30 O         142.7961  145.1758  162.0684 O.2     1  UNL1       -0.2699
     31 N         140.7944  144.0619  160.8429 N.am    1  UNL1       -0.2726
     32 C         139.4547  143.3886  160.8891 C.3     1  UNL1        0.1152
     33 C         138.7926  142.9479  159.6173 C.3     1  UNL1        0.1149
     34 N         139.4701  143.1805  158.2994 N.am    1  UNL1       -0.2760
     35 C         138.8079  142.7398  157.0276 C.2     1  UNL1        0.2262
     36 C         137.4683  142.0665  157.0738 C.3     1  UNL1        0.0948
     37 O         139.4854  142.9723  155.7097 O.2     1  UNL1       -0.2749
     38 C         140.8097  143.8537  158.2532 C.3     1  UNL1        0.1149
     39 C         141.4718  144.2944  159.5250 C.3     1  UNL1        0.1152
@<TRIPOS>BOND
     1    21    22    1
     2    22    11    1
     3    11    12   ar
     4    12    13   ar
     5    13    14   ar
     6    14     1    1
     7     1     2   ar
     8     2     3   ar
     9     3     4   ar
    10     4     5   ar
    11     5     6   ar
    12     6     7   ar
    13     7     8   ar
    14     8    23    1
    15    23    24   ar
    16    24    25   ar
    17    25    26   ar
    18    26    27   ar
    19    27    29    1
    20    29    30    2
    21    29    31   am
    22    31    32    1
    23    32    33    1
    24    33    34    1
    25    34    35   am
    26    35    36    1
    27    35    37    2
    28    34    38    1
    29    38    39    1
    30    27    28   ar
    31     8     9   ar
    32     9    10   ar
    33    14    15   ar
    34    15    16   ar
    35    16    17    1
    36    17    18    1
    37    17    19    1
    38    17    20    1
    39    16    11   ar
    40    10     1   ar
    41     9     4   ar
    42    28    23   ar
    43    39    31    1
