@<TRIPOS>MOLECULE
*****
 35 39 0 0 0
SMALL
GASTEIGER

@<TRIPOS>ATOM
      1 C         141.1375  140.9624  165.8162 C.ar    1  UNL1        0.2359
      2 N         140.3336  142.1699  165.4345 N.ar    1  UNL1       -0.1904
      3 C         141.2035  143.0602  164.5975 C.ar    1  UNL1        0.2006
      4 C         140.9473  144.3845  163.9412 C.ar    1  UNL1        0.1745
      5 C         142.0327  145.0515  163.1493 C.ar    1  UNL1        0.0416
      6 C         143.3742  144.3943  163.0138 C.ar    1  UNL1        0.0264
      7 C         143.6304  143.0700  163.6700 C.ar    1  UNL1        0.1560
      8 N         142.5450  142.4030  164.4618 N.ar    1  UNL1       -0.2028
      9 N         142.5042  141.1065  165.2151 N.ar    1  UNL1       -0.1284
     10 C         144.9719  142.4128  163.5344 C.3     1  UNL1        0.4349
     11 F         146.3134  141.7556  163.3987 F       1  UNL1       -0.1644
     12 F         145.3642  142.9351  164.8847 F       1  UNL1       -0.1644
     13 F         144.5795  141.8906  162.1841 F       1  UNL1       -0.1644
     14 N         140.6588  139.8127  166.6523 N.pl3   1  UNL1       -0.3033
     15 H         140.3578  138.9812  166.2196 H       1  UNL1        0.1496
     16 N         140.7420  139.8139  166.7853 N.pl3   1  UNL1       -0.2931
     17 C         139.4406  140.0108  167.5048 C.3     1  UNL1        0.0937
     18 C         139.4206  140.1280  169.0002 C.3     1  UNL1        0.0378
     19 C         139.8622  140.1901  170.4323 C.3     1  UNL1        0.0035
     20 C         141.3533  140.0304  170.4648 C.3     1  UNL1        0.0035
     21 C         141.8332  139.8695  169.0529 C.3     1  UNL1        0.0378
     22 C         142.0233  139.7341  167.5613 C.3     1  UNL1        0.0937
     23 C         140.6387  139.9299  168.1475 C.3     1  UNL1        0.0750
     24 C         143.1293  138.3132  162.4209 C.3     1  UNL1        0.0522
     25 C         141.9558  138.9463  163.1079 C.ar    1  UNL1        0.0639
     26 C         141.9357  139.0635  164.6031 C.ar    1  UNL1        0.0491
     27 C         140.7622  139.6967  165.2901 C.ar    1  UNL1        0.1346
     28 N         139.6088  140.2127  164.4818 N.ar    1  UNL1       -0.2090
     29 C         139.6288  140.0956  162.9865 C.ar    1  UNL1        0.1997
     30 N         140.8023  139.4624  162.2996 N.ar    1  UNL1       -0.2283
     31 O         139.6058  145.0418  164.0768 O.3     1  UNL1       -0.4662
     32 C         138.5307  144.7674  163.0673 C.3     1  UNL1        0.2773
     33 C         137.8196  143.4467  163.0693 C.3     1  UNL1        0.3615
     34 F         137.3758  142.8358  164.3653 F       1  UNL1       -0.1942
     35 F         137.5522  142.7370  161.7752 F       1  UNL1       -0.1942
@<TRIPOS>BOND
     1    24    25    1
     2    25    26   ar
     3    26    27   ar
     4    27    16    1
     5    16    17    1
     6    18    17    1
     7    18    19    1
     8    19    20    1
     9    21    20    1
    10    21    22    1
    11    21    23    1
    12    23    14    1
    13    14     1    1
    14     1     2   ar
    15     2     3   ar
    16     3     4   ar
    17     4    31    1
    18    31    32    1
    19    32    33    1
    20    33    34    1
    21    33    35    1
    22     4     5   ar
    23     5     6   ar
    24     6     7   ar
    25     7    10    1
    26    10    11    1
    27    10    12    1
    28    10    13    1
    29     7     8   ar
    30     8     9   ar
    31    27    28   ar
    32    28    29   ar
    33    29    30   ar
    34    30    25   ar
    35    22    16    1
    36     9     1   ar
    37    23    18    1
    38     8     3   ar
    39    14    15    1
@<TRIPOS>MOLECULE
*****
 35 39 0 0 0
SMALL
GASTEIGER

@<TRIPOS>ATOM
      1 C         141.0506  141.4220  166.2857 C.ar    1  UNL1        0.2359
      2 N         141.5923  140.2436  165.5321 N.ar    1  UNL1       -0.1904
      3 C         142.7392  140.7192  164.6904 C.ar    1  UNL1        0.2006
      4 C         143.6530  140.0017  163.7417 C.ar    1  UNL1        0.1745
      5 C         144.7340  140.7567  163.0263 C.ar    1  UNL1        0.0416
      6 C         144.9011  142.2289  163.2597 C.ar    1  UNL1        0.0264
      7 C         143.9873  142.9463  164.2085 C.ar    1  UNL1        0.1560
      8 N         142.9064  142.1915  164.9238 N.ar    1  UNL1       -0.2028
      9 N         141.8627  142.6259  165.9098 N.ar    1  UNL1       -0.1284
     10 C         144.1544  144.4186  164.4419 C.3     1  UNL1        0.4349
     11 F         144.3215  145.8909  164.6752 F       1  UNL1       -0.1644
     12 F         144.8843  144.1330  165.7208 F       1  UNL1       -0.1644
     13 F         143.4246  144.7042  163.1629 F       1  UNL1       -0.1644
     14 N         139.8989  141.4005  167.2465 N.pl3   1  UNL1       -0.3033
     15 H         138.9822  141.5491  166.9196 H       1  UNL1        0.1496
     16 N         139.9552  141.4564  167.3819 N.pl3   1  UNL1       -0.2931
     17 C         139.5484  140.1513  167.9994 C.3     1  UNL1        0.0937
     18 C         139.7933  139.9032  169.4583 C.3     1  UNL1        0.0378
     19 C         140.2151  140.0886  170.8858 C.3     1  UNL1        0.0035
     20 C         140.8263  141.4523  171.0151 C.3     1  UNL1        0.0035
     21 C         140.7823  142.1097  169.6676 C.3     1  UNL1        0.0378
     22 C         140.6070  142.5133  168.2234 C.3     1  UNL1        0.0937
     23 C         140.1438  141.1523  168.7054 C.3     1  UNL1        0.0750
     24 C         139.4429  144.7586  163.4029 C.3     1  UNL1        0.0522
     25 C         139.4542  143.3557  163.9335 C.ar    1  UNL1        0.0639
     26 C         139.6991  143.1076  165.3924 C.ar    1  UNL1        0.0491
     27 C         139.7103  141.7046  165.9230 C.ar    1  UNL1        0.1346
     28 N         139.4766  140.5497  164.9947 N.ar    1  UNL1       -0.2090
     29 C         139.2317  140.7979  163.5358 C.ar    1  UNL1        0.1997
     30 N         139.2205  142.2008  163.0052 N.ar    1  UNL1       -0.2283
     31 O         143.4860  138.5294  163.5082 O.3     1  UNL1       -0.4662
     32 C         142.3374  138.0261  162.6852 C.3     1  UNL1        0.2773
     33 C         141.1777  137.3476  163.3519 C.3     1  UNL1        0.3615
     34 F         139.8355  137.3260  162.6825 F       1  UNL1       -0.1942
     35 F         141.3601  136.6906  164.6879 F       1  UNL1       -0.1942
@<TRIPOS>BOND
     1    24    25    1
     2    25    26   ar
     3    26    27   ar
     4    27    16    1
     5    16    17    1
     6    18    17    1
     7    18    19    1
     8    19    20    1
     9    21    20    1
    10    21    22    1
    11    21    23    1
    12    23    14    1
    13    14     1    1
    14     1     2   ar
    15     2     3   ar
    16     3     4   ar
    17     4    31    1
    18    31    32    1
    19    32    33    1
    20    33    34    1
    21    33    35    1
    22     4     5   ar
    23     5     6   ar
    24     6     7   ar
    25     7    10    1
    26    10    11    1
    27    10    12    1
    28    10    13    1
    29     7     8   ar
    30     8     9   ar
    31    27    28   ar
    32    28    29   ar
    33    29    30   ar
    34    30    25   ar
    35    22    16    1
    36     9     1   ar
    37    23    18    1
    38     8     3   ar
    39    14    15    1
@<TRIPOS>MOLECULE
*****
 35 39 0 0 0
SMALL
GASTEIGER

@<TRIPOS>ATOM
      1 C         140.8639  140.9739  166.1602 C.ar    1  UNL1        0.2359
      2 N         140.2405  139.8283  165.4194 N.ar    1  UNL1       -0.1904
      3 C         141.2492  139.3059  164.4398 C.ar    1  UNL1        0.2006
      4 C         141.1934  138.1874  163.4420 C.ar    1  UNL1        0.1745
      5 C         142.3847  137.8916  162.5796 C.ar    1  UNL1        0.0416
      6 C         143.6315  138.7143  162.7151 C.ar    1  UNL1        0.0264
      7 C         143.6873  139.8328  163.7129 C.ar    1  UNL1        0.1560
      8 N         142.4961  140.1287  164.5753 N.ar    1  UNL1       -0.2028
      9 N         142.2580  141.1596  165.6386 N.ar    1  UNL1       -0.1284
     10 C         144.9342  140.6556  163.8484 C.3     1  UNL1        0.4349
     11 F         146.1811  141.4784  163.9838 F       1  UNL1       -0.1644
     12 F         145.5971  139.5296  164.5851 F       1  UNL1       -0.1644
     13 F         144.2713  141.7815  163.1116 F       1  UNL1       -0.1644
     14 N         140.2085  141.7905  167.2342 N.pl3   1  UNL1       -0.3033
     15 H         139.6555  142.5685  166.9927 H       1  UNL1        0.1496
     16 N         140.1849  141.6839  167.3470 N.pl3   1  UNL1       -0.2931
     17 C         140.8854  142.6287  168.2779 C.3     1  UNL1        0.0937
     18 C         141.0723  142.2600  169.7199 C.3     1  UNL1        0.0378
     19 C         141.0335  141.5065  171.0163 C.3     1  UNL1        0.0035
     20 C         140.3326  140.2027  170.7738 C.3     1  UNL1        0.0035
     21 C         139.9383  140.1504  169.3276 C.3     1  UNL1        0.0378
     22 C         139.6714  140.3704  167.8580 C.3     1  UNL1        0.0937
     23 C         140.3954  141.4219  168.6761 C.3     1  UNL1        0.0750
     24 C         137.3654  141.5065  162.9860 C.3     1  UNL1        0.0522
     25 C         138.5882  141.9638  163.7246 C.ar    1  UNL1        0.0639
     26 C         138.7751  141.5951  165.1665 C.ar    1  UNL1        0.0491
     27 C         139.9979  142.0524  165.9051 C.ar    1  UNL1        0.1346
     28 N         141.0339  142.8784  165.2017 N.ar    1  UNL1       -0.2090
     29 C         140.8470  143.2470  163.7598 C.ar    1  UNL1        0.1997
     30 N         139.6242  142.7897  163.0212 N.ar    1  UNL1       -0.2283
     31 O         139.9466  137.3646  163.3065 O.3     1  UNL1       -0.4662
     32 C         138.6573  138.0173  162.9046 C.3     1  UNL1        0.2773
     33 C         138.3598  138.2601  161.4545 C.3     1  UNL1        0.3615
     34 F         137.0299  138.8204  161.0453 F       1  UNL1       -0.1942
     35 F         139.3922  137.9427  160.4137 F       1  UNL1       -0.1942
@<TRIPOS>BOND
     1    24    25    1
     2    25    26   ar
     3    26    27   ar
     4    27    16    1
     5    16    17    1
     6    18    17    1
     7    18    19    1
     8    19    20    1
     9    21    20    1
    10    21    22    1
    11    21    23    1
    12    23    14    1
    13    14     1    1
    14     1     2   ar
    15     2     3   ar
    16     3     4   ar
    17     4    31    1
    18    31    32    1
    19    32    33    1
    20    33    34    1
    21    33    35    1
    22     4     5   ar
    23     5     6   ar
    24     6     7   ar
    25     7    10    1
    26    10    11    1
    27    10    12    1
    28    10    13    1
    29     7     8   ar
    30     8     9   ar
    31    27    28   ar
    32    28    29   ar
    33    29    30   ar
    34    30    25   ar
    35    22    16    1
    36     9     1   ar
    37    23    18    1
    38     8     3   ar
    39    14    15    1
@<TRIPOS>MOLECULE
*****
 35 39 0 0 0
SMALL
GASTEIGER

@<TRIPOS>ATOM
      1 C         141.2935  141.1767  166.3602 C.ar    1  UNL1        0.2359
      2 N         142.4703  141.7615  165.6368 N.ar    1  UNL1       -0.1904
      3 C         141.9984  142.9713  164.8861 C.ar    1  UNL1        0.2006
      4 C         142.7161  143.9456  163.9997 C.ar    1  UNL1        0.1745
      5 C         141.9654  145.0830  163.3728 C.ar    1  UNL1        0.0416
      6 C         140.4971  145.2460  163.6323 C.ar    1  UNL1        0.0264
      7 C         139.7794  144.2717  164.5186 C.ar    1  UNL1        0.1560
      8 N         140.5300  143.1343  165.1455 N.ar    1  UNL1       -0.2028
      9 N         140.0944  142.0252  166.0566 N.ar    1  UNL1       -0.1284
     10 C         138.3110  144.4347  164.7781 C.3     1  UNL1        0.4349
     11 F         136.8426  144.5976  165.0374 F       1  UNL1       -0.1644
     12 F         138.6135  145.4078  165.8788 F       1  UNL1       -0.1644
     13 F         138.0085  143.4616  163.6773 F       1  UNL1       -0.1644
     14 N         141.3126  139.9576  167.2338 N.pl3   1  UNL1       -0.3033
     15 H         141.2265  139.0628  166.8323 H       1  UNL1        0.1496
     16 N         141.2413  139.9810  167.3717 N.pl3   1  UNL1       -0.2931
     17 C         142.5999  139.8888  168.0007 C.3     1  UNL1        0.0937
     18 C         142.7500  140.0329  169.4863 C.3     1  UNL1        0.0378
     19 C         142.4347  140.2286  170.9396 C.3     1  UNL1        0.0035
     20 C         140.9525  140.4182  171.0710 C.3     1  UNL1        0.0035
     21 C         140.3518  140.3398  169.6988 C.3     1  UNL1        0.0378
     22 C         140.0327  140.2173  168.2283 C.3     1  UNL1        0.0937
     23 C         141.4626  140.1017  168.7193 C.3     1  UNL1        0.0750
     24 C         138.2215  139.8566  163.1450 C.3     1  UNL1        0.0522
     25 C         139.5812  139.7748  163.7729 C.ar    1  UNL1        0.0639
     26 C         139.7313  139.9188  165.2584 C.ar    1  UNL1        0.0491
     27 C         141.0911  139.8370  165.8862 C.ar    1  UNL1        0.1346
     28 N         142.3008  139.6110  165.0286 N.ar    1  UNL1       -0.2090
     29 C         142.1508  139.4669  163.5431 C.ar    1  UNL1        0.1997
     30 N         140.7910  139.5488  162.9153 N.ar    1  UNL1       -0.2283
     31 O         144.1845  143.7827  163.7402 O.3     1  UNL1       -0.4662
     32 C         144.6545  142.9279  162.6007 C.3     1  UNL1        0.2773
     33 C         145.2431  141.5750  162.8711 C.3     1  UNL1        0.3615
     34 F         146.1235  141.3656  164.0673 F       1  UNL1       -0.1942
     35 F         144.9513  140.4315  161.9453 F       1  UNL1       -0.1942
@<TRIPOS>BOND
     1    24    25    1
     2    25    26   ar
     3    26    27   ar
     4    27    16    1
     5    16    17    1
     6    18    17    1
     7    18    19    1
     8    19    20    1
     9    21    20    1
    10    21    22    1
    11    21    23    1
    12    23    14    1
    13    14     1    1
    14     1     2   ar
    15     2     3   ar
    16     3     4   ar
    17     4    31    1
    18    31    32    1
    19    32    33    1
    20    33    34    1
    21    33    35    1
    22     4     5   ar
    23     5     6   ar
    24     6     7   ar
    25     7    10    1
    26    10    11    1
    27    10    12    1
    28    10    13    1
    29     7     8   ar
    30     8     9   ar
    31    27    28   ar
    32    28    29   ar
    33    29    30   ar
    34    30    25   ar
    35    22    16    1
    36     9     1   ar
    37    23    18    1
    38     8     3   ar
    39    14    15    1
@<TRIPOS>MOLECULE
*****
 35 39 0 0 0
SMALL
GASTEIGER

@<TRIPOS>ATOM
      1 C         140.9053  141.0793  166.1886 C.ar    1  UNL1        0.2359
      2 N         142.3657  141.0263  165.8504 N.ar    1  UNL1       -0.1904
      3 C         142.5430  140.0670  164.7109 C.ar    1  UNL1        0.2006
      4 C         143.7600  139.6154  163.9593 C.ar    1  UNL1        0.1745
      5 C         143.6261  138.6238  162.8417 C.ar    1  UNL1        0.0416
      6 C         142.2754  138.0840  162.4757 C.ar    1  UNL1        0.0264
      7 C         141.0584  138.5357  163.2273 C.ar    1  UNL1        0.1560
      8 N         141.1922  139.5272  164.3449 N.ar    1  UNL1       -0.2028
      9 N         140.1800  140.1528  165.2582 N.ar    1  UNL1       -0.1284
     10 C         139.7076  137.9958  162.8614 C.3     1  UNL1        0.4349
     11 F         138.3568  137.4560  162.4953 F       1  UNL1       -0.1644
     12 F         139.6958  137.1745  164.1165 F       1  UNL1       -0.1644
     13 F         139.7194  138.8171  161.6062 F       1  UNL1       -0.1644
     14 N         140.2799  141.9125  167.2678 N.pl3   1  UNL1       -0.3033
     15 H         139.8104  142.7463  167.0362 H       1  UNL1        0.1496
     16 N         140.2515  141.7994  167.3730 N.pl3   1  UNL1       -0.2931
     17 C         140.8474  142.7153  168.4007 C.3     1  UNL1        0.0937
     18 C         140.9373  142.2781  169.8329 C.3     1  UNL1        0.0378
     19 C         140.8262  141.4576  171.0836 C.3     1  UNL1        0.0035
     20 C         140.1901  140.1477  170.7237 C.3     1  UNL1        0.0035
     21 C         139.9080  140.1586  169.2506 C.3     1  UNL1        0.0378
     22 C         139.7456  140.4464  167.7774 C.3     1  UNL1        0.0937
     23 C         140.3698  141.4753  168.6999 C.3     1  UNL1        0.0750
     24 C         137.6122  142.0597  162.9047 C.3     1  UNL1        0.0522
     25 C         138.8420  142.3667  163.7068 C.ar    1  UNL1        0.0639
     26 C         138.9318  141.9295  165.1389 C.ar    1  UNL1        0.0491
     27 C         140.1616  142.2365  165.9410 C.ar    1  UNL1        0.1346
     28 N         141.3016  142.9806  165.3110 N.ar    1  UNL1       -0.2090
     29 C         141.2117  143.4177  163.8789 C.ar    1  UNL1        0.1997
     30 N         139.9819  143.1107  163.0768 N.ar    1  UNL1       -0.2283
     31 O         145.1108  140.1552  164.3252 O.3     1  UNL1       -0.4662
     32 C         145.6406  141.3790  163.6385 C.3     1  UNL1        0.2773
     33 C         145.0261  142.7191  163.9147 C.3     1  UNL1        0.3615
     34 F         144.7437  143.1380  165.3271 F       1  UNL1       -0.1942
     35 F         144.6940  143.6404  162.7786 F       1  UNL1       -0.1942
@<TRIPOS>BOND
     1    24    25    1
     2    25    26   ar
     3    26    27   ar
     4    27    16    1
     5    16    17    1
     6    18    17    1
     7    18    19    1
     8    19    20    1
     9    21    20    1
    10    21    22    1
    11    21    23    1
    12    23    14    1
    13    14     1    1
    14     1     2   ar
    15     2     3   ar
    16     3     4   ar
    17     4    31    1
    18    31    32    1
    19    32    33    1
    20    33    34    1
    21    33    35    1
    22     4     5   ar
    23     5     6   ar
    24     6     7   ar
    25     7    10    1
    26    10    11    1
    27    10    12    1
    28    10    13    1
    29     7     8   ar
    30     8     9   ar
    31    27    28   ar
    32    28    29   ar
    33    29    30   ar
    34    30    25   ar
    35    22    16    1
    36     9     1   ar
    37    23    18    1
    38     8     3   ar
    39    14    15    1
