@<TRIPOS>MOLECULE
*****
 23 25 0 0 0
SMALL
GASTEIGER

@<TRIPOS>ATOM
      1 N         143.3473  142.7732  163.4665 N.ar    1  UNL1       -0.2076
      2 C         142.4643  142.9590  162.2683 C.ar    1  UNL1        0.1378
      3 C         142.6229  144.3719  161.7902 C.ar    1  UNL1        0.1713
      4 N         143.6039  145.0594  162.6930 N.ar    1  UNL1       -0.1135
      5 N         144.0516  144.0713  163.7290 N.ar    1  UNL1       -0.0583
      6 CL        143.9553  137.7241  166.6504 Cl      1  UNL1       -0.0814
      7 C         143.8033  138.9864  165.8544 C.ar    1  UNL1        0.0683
      8 C         144.7037  139.2477  164.6836 C.ar    1  UNL1        0.0138
      9 C         144.5517  140.5100  163.8876 C.ar    1  UNL1        0.0201
     10 C         143.4993  141.5109  164.2625 C.ar    1  UNL1        0.0854
     11 C         142.5989  141.2495  165.4333 C.ar    1  UNL1        0.0314
     12 C         142.7509  139.9873  166.2293 C.ar    1  UNL1        0.0697
     13 CL        141.8504  139.7259  167.4002 Cl      1  UNL1       -0.0813
     14 N         141.9233  144.9891  160.6156 N.pl3   1  UNL1       -0.3142
     15 H         142.3898  145.0721  159.7527 H       1  UNL1        0.1483
     16 C         140.5127  145.4797  160.7558 C.3     1  UNL1        0.1058
     17 C         139.9784  145.8501  162.1076 C.3     1  UNL1        0.0936
     18 N         139.3891  144.7947  162.9960 N.3     1  UNL1       -0.2712
     19 C         138.2834  143.9180  162.4874 C.3     1  UNL1        0.0721
     20 C         137.6942  142.8627  163.3758 C.3     1  UNL1        0.0174
     21 C         138.2106  142.6843  164.7727 C.3     1  UNL1        0.0029
     22 C         139.3163  143.5611  165.2813 C.3     1  UNL1        0.0174
     23 C         139.9055  144.6163  164.3929 C.3     1  UNL1        0.0721
@<TRIPOS>BOND
     1     6     7    1
     2     7     8   ar
     3     8     9   ar
     4     9    10   ar
     5    10     1    1
     6     1     2   ar
     7     2     3   ar
     8     3    14    1
     9    14    16    1
    10    16    17    1
    11    17    18    1
    12    18    19    1
    13    19    20    1
    14    20    21    1
    15    21    22    1
    16    22    23    1
    17     3     4   ar
    18     4     5   ar
    19    10    11   ar
    20    11    12   ar
    21    12    13    1
    22    12     7   ar
    23     5     1   ar
    24    23    18    1
    25    14    15    1
@<TRIPOS>MOLECULE
*****
 23 25 0 0 0
SMALL
GASTEIGER

@<TRIPOS>ATOM
      1 N         139.7690  139.9774  167.1675 N.ar    1  UNL1       -0.2076
      2 C         139.9071  139.8182  165.6824 C.ar    1  UNL1        0.1378
      3 C         138.8240  138.8929  165.2126 C.ar    1  UNL1        0.1713
      4 N         138.0164  138.4802  166.4074 N.ar    1  UNL1       -0.1135
      5 N         138.6005  139.1504  167.6156 N.ar    1  UNL1       -0.0583
      6 CL        143.2750  143.3326  170.6961 Cl      1  UNL1       -0.0814
      7 C         142.3985  142.4938  169.8139 C.ar    1  UNL1        0.0683
      8 C         142.9011  141.1830  169.2855 C.ar    1  UNL1        0.0138
      9 C         142.0246  140.3442  168.4034 C.ar    1  UNL1        0.0201
     10 C         140.6455  140.8162  168.0497 C.ar    1  UNL1        0.0854
     11 C         140.1428  142.1269  168.5780 C.ar    1  UNL1        0.0314
     12 C         141.0193  142.9657  169.4602 C.ar    1  UNL1        0.0697
     13 CL        140.5166  144.2766  169.9886 Cl      1  UNL1       -0.0813
     14 N         138.5895  138.4569  163.7967 N.pl3   1  UNL1       -0.3142
     15 H         138.3940  137.5126  163.5984 H       1  UNL1        0.1483
     16 C         138.6531  139.4596  162.6829 C.3     1  UNL1        0.1058
     17 C         137.6380  140.5614  162.6069 C.3     1  UNL1        0.0936
     18 N         138.0240  141.9635  162.9749 N.3     1  UNL1       -0.2712
     19 C         138.6851  142.8498  161.9614 C.3     1  UNL1        0.0721
     20 C         139.0711  144.2519  162.3295 C.3     1  UNL1        0.0174
     21 C         138.7959  144.7675  163.7109 C.3     1  UNL1        0.0029
     22 C         138.1347  143.8810  164.7243 C.3     1  UNL1        0.0174
     23 C         137.7488  142.4790  164.3563 C.3     1  UNL1        0.0721
@<TRIPOS>BOND
     1     6     7    1
     2     7     8   ar
     3     8     9   ar
     4     9    10   ar
     5    10     1    1
     6     1     2   ar
     7     2     3   ar
     8     3    14    1
     9    14    16    1
    10    16    17    1
    11    17    18    1
    12    18    19    1
    13    19    20    1
    14    20    21    1
    15    21    22    1
    16    22    23    1
    17     3     4   ar
    18     4     5   ar
    19    10    11   ar
    20    11    12   ar
    21    12    13    1
    22    12     7   ar
    23     5     1   ar
    24    23    18    1
    25    14    15    1
@<TRIPOS>MOLECULE
*****
 23 25 0 0 0
SMALL
GASTEIGER

@<TRIPOS>ATOM
      1 N         139.4088  139.2328  165.0114 N.ar    1  UNL1       -0.2076
      2 C         138.7183  140.2497  164.1517 C.ar    1  UNL1        0.1378
      3 C         138.2204  139.5539  162.9196 C.ar    1  UNL1        0.1713
      4 N         138.6032  138.1069  163.0179 N.ar    1  UNL1       -0.1135
      5 N         139.3376  137.9085  164.3106 N.ar    1  UNL1       -0.0583
      6 CL        142.0004  140.2790  170.3207 Cl      1  UNL1       -0.0814
      7 C         141.3525  140.0174  168.9934 C.ar    1  UNL1        0.0683
      8 C         142.1973  139.6903  167.7979 C.ar    1  UNL1        0.0138
      9 C         141.5494  139.4288  166.4705 C.ar    1  UNL1        0.0201
     10 C         140.0567  139.4944  166.3387 C.ar    1  UNL1        0.0854
     11 C         139.2119  139.8215  167.5342 C.ar    1  UNL1        0.0314
     12 C         139.8598  140.0830  168.8615 C.ar    1  UNL1        0.0697
     13 CL        139.0149  140.4101  170.0570 Cl      1  UNL1       -0.0813
     14 N         137.4712  140.1928  161.7881 N.pl3   1  UNL1       -0.3142
     15 H         136.5015  140.0495  161.6966 H       1  UNL1        0.1483
     16 C         138.1995  141.0501  160.7958 C.3     1  UNL1        0.1058
     17 C         138.1809  142.5432  160.9385 C.3     1  UNL1        0.0936
     18 N         138.6743  143.1820  162.2030 N.3     1  UNL1       -0.2712
     19 C         140.1448  143.2309  162.4942 C.3     1  UNL1        0.0721
     20 C         140.6381  143.8697  163.7587 C.3     1  UNL1        0.0174
     21 C         139.6608  144.4594  164.7318 C.3     1  UNL1        0.0029
     22 C         138.1901  144.4104  164.4405 C.3     1  UNL1        0.0174
     23 C         137.6969  143.7717  163.1761 C.3     1  UNL1        0.0721
@<TRIPOS>BOND
     1     6     7    1
     2     7     8   ar
     3     8     9   ar
     4     9    10   ar
     5    10     1    1
     6     1     2   ar
     7     2     3   ar
     8     3    14    1
     9    14    16    1
    10    16    17    1
    11    17    18    1
    12    18    19    1
    13    19    20    1
    14    20    21    1
    15    21    22    1
    16    22    23    1
    17     3     4   ar
    18     4     5   ar
    19    10    11   ar
    20    11    12   ar
    21    12    13    1
    22    12     7   ar
    23     5     1   ar
    24    23    18    1
    25    14    15    1
@<TRIPOS>MOLECULE
*****
 23 25 0 0 0
SMALL
GASTEIGER

@<TRIPOS>ATOM
      1 N         143.3639  142.5796  164.6305 N.ar    1  UNL1       -0.2076
      2 C         142.3378  143.3946  163.9005 C.ar    1  UNL1        0.1378
      3 C         143.0192  144.0758  162.7508 C.ar    1  UNL1        0.1713
      4 N         144.4664  143.6818  162.7703 N.ar    1  UNL1       -0.1135
      5 N         144.6794  142.7571  163.9320 N.ar    1  UNL1       -0.0583
      6 CL        142.3790  139.2027  169.4912 Cl      1  UNL1       -0.0814
      7 C         142.6252  140.0469  168.2761 C.ar    1  UNL1        0.0683
      8 C         142.6275  139.4185  166.9141 C.ar    1  UNL1        0.0138
      9 C         142.8737  140.2627  165.6989 C.ar    1  UNL1        0.0201
     10 C         143.1177  141.7354  165.8457 C.ar    1  UNL1        0.0854
     11 C         143.1154  142.3639  167.2077 C.ar    1  UNL1        0.0314
     12 C         142.8692  141.5196  168.4228 C.ar    1  UNL1        0.0697
     13 CL        142.8670  142.1482  169.7848 Cl      1  UNL1       -0.0813
     14 N         142.3677  144.9904  161.7563 N.pl3   1  UNL1       -0.3142
     15 H         142.6039  145.9459  161.7378 H       1  UNL1        0.1483
     16 C         141.3563  144.4490  160.7898 C.3     1  UNL1        0.1058
     17 C         139.9061  144.7978  160.9481 C.3     1  UNL1        0.0936
     18 N         139.1287  144.2619  162.1138 N.3     1  UNL1       -0.2712
     19 C         139.1575  144.9821  163.4291 C.3     1  UNL1        0.0721
     20 C         138.3801  144.4461  164.5948 C.3     1  UNL1        0.0174
     21 C         137.5742  143.1900  164.4449 C.3     1  UNL1        0.0029
     22 C         137.5455  142.4698  163.1295 C.3     1  UNL1        0.0174
     23 C         138.3228  143.0057  161.9639 C.3     1  UNL1        0.0721
@<TRIPOS>BOND
     1     6     7    1
     2     7     8   ar
     3     8     9   ar
     4     9    10   ar
     5    10     1    1
     6     1     2   ar
     7     2     3   ar
     8     3    14    1
     9    14    16    1
    10    16    17    1
    11    17    18    1
    12    18    19    1
    13    19    20    1
    14    20    21    1
    15    21    22    1
    16    22    23    1
    17     3     4   ar
    18     4     5   ar
    19    10    11   ar
    20    11    12   ar
    21    12    13    1
    22    12     7   ar
    23     5     1   ar
    24    23    18    1
    25    14    15    1
@<TRIPOS>MOLECULE
*****
 23 25 0 0 0
SMALL
GASTEIGER

@<TRIPOS>ATOM
      1 N         139.4837  142.0641  165.7303 N.ar    1  UNL1       -0.2076
      2 C         138.7608  141.0223  164.9290 C.ar    1  UNL1        0.1378
      3 C         137.8832  141.7267  163.9372 C.ar    1  UNL1        0.1713
      4 N         138.0637  143.2038  164.1255 N.ar    1  UNL1       -0.1135
      5 N         139.0529  143.4123  165.2337 N.ar    1  UNL1       -0.0583
      6 CL        143.4094  141.0214  170.1464 Cl      1  UNL1       -0.0814
      7 C         142.4280  141.2821  169.0424 C.ar    1  UNL1        0.0683
      8 C         142.8382  142.0956  167.8509 C.ar    1  UNL1        0.0138
      9 C         141.8567  142.3563  166.7468 C.ar    1  UNL1        0.0201
     10 C         140.4651  141.8034  166.8343 C.ar    1  UNL1        0.0854
     11 C         140.0550  140.9898  168.0259 C.ar    1  UNL1        0.0314
     12 C         141.0364  140.7292  169.1299 C.ar    1  UNL1        0.0697
     13 CL        140.6261  139.9155  170.3215 Cl      1  UNL1       -0.0813
     14 N         136.9831  141.0693  162.9333 N.pl3   1  UNL1       -0.3142
     15 H         136.0063  141.1032  163.0514 H       1  UNL1        0.1483
     16 C         137.5714  140.3602  161.7496 C.3     1  UNL1        0.1058
     17 C         137.7748  138.8746  161.7903 C.3     1  UNL1        0.0936
     18 N         138.9413  138.2975  162.5362 N.3     1  UNL1       -0.2712
     19 C         138.7740  137.8465  163.9569 C.3     1  UNL1        0.0721
     20 C         139.9406  137.2694  164.7028 C.3     1  UNL1        0.0174
     21 C         141.2742  137.1433  164.0279 C.3     1  UNL1        0.0029
     22 C         141.4414  137.5943  162.6071 C.3     1  UNL1        0.0174
     23 C         140.2749  138.1714  161.8613 C.3     1  UNL1        0.0721
@<TRIPOS>BOND
     1     6     7    1
     2     7     8   ar
     3     8     9   ar
     4     9    10   ar
     5    10     1    1
     6     1     2   ar
     7     2     3   ar
     8     3    14    1
     9    14    16    1
    10    16    17    1
    11    17    18    1
    12    18    19    1
    13    19    20    1
    14    20    21    1
    15    21    22    1
    16    22    23    1
    17     3     4   ar
    18     4     5   ar
    19    10    11   ar
    20    11    12   ar
    21    12    13    1
    22    12     7   ar
    23     5     1   ar
    24    23    18    1
    25    14    15    1
@<TRIPOS>MOLECULE
*****
 23 25 0 0 0
SMALL
GASTEIGER

@<TRIPOS>ATOM
      1 N         142.7943  142.6598  165.0915 N.ar    1  UNL1       -0.2076
      2 C         142.0173  143.6148  164.2346 C.ar    1  UNL1        0.1378
      3 C         142.9054  144.0556  163.1091 C.ar    1  UNL1        0.1713
      4 N         144.2314  143.3731  163.2703 N.ar    1  UNL1       -0.1135
      5 N         144.1627  142.5104  164.4955 N.ar    1  UNL1       -0.0583
      6 CL        140.7822  139.9186  170.0349 Cl      1  UNL1       -0.0814
      7 C         141.2852  140.6039  168.7990 C.ar    1  UNL1        0.0683
      8 C         142.5580  141.3962  168.8461 C.ar    1  UNL1        0.0138
      9 C         143.0610  142.0815  167.6103 C.ar    1  UNL1        0.0201
     10 C         142.2913  141.9745  166.3273 C.ar    1  UNL1        0.0854
     11 C         141.0185  141.1822  166.2802 C.ar    1  UNL1        0.0314
     12 C         140.5155  140.4969  167.5161 C.ar    1  UNL1        0.0697
     13 CL        139.2426  139.7046  167.4690 Cl      1  UNL1       -0.0813
     14 N         142.5330  145.0113  162.0145 N.pl3   1  UNL1       -0.3142
     15 H         142.8930  145.9276  162.0175 H       1  UNL1        0.1483
     16 C         141.6122  144.5707  160.9155 C.3     1  UNL1        0.1058
     17 C         140.1335  144.7873  161.0441 C.3     1  UNL1        0.0936
     18 N         139.3570  144.0547  162.0980 N.3     1  UNL1       -0.2712
     19 C         138.6753  144.8186  163.1942 C.3     1  UNL1        0.0721
     20 C         137.8989  144.0859  164.2480 C.3     1  UNL1        0.0174
     21 C         137.8043  142.5896  164.2057 C.3     1  UNL1        0.0029
     22 C         138.4861  141.8257  163.1094 C.3     1  UNL1        0.0174
     23 C         139.2625  142.5583  162.0556 C.3     1  UNL1        0.0721
@<TRIPOS>BOND
     1     6     7    1
     2     7     8   ar
     3     8     9   ar
     4     9    10   ar
     5    10     1    1
     6     1     2   ar
     7     2     3   ar
     8     3    14    1
     9    14    16    1
    10    16    17    1
    11    17    18    1
    12    18    19    1
    13    19    20    1
    14    20    21    1
    15    21    22    1
    16    22    23    1
    17     3     4   ar
    18     4     5   ar
    19    10    11   ar
    20    11    12   ar
    21    12    13    1
    22    12     7   ar
    23     5     1   ar
    24    23    18    1
    25    14    15    1
@<TRIPOS>MOLECULE
*****
 23 25 0 0 0
SMALL
GASTEIGER

@<TRIPOS>ATOM
      1 N         141.1909  143.1943  165.1508 N.ar    1  UNL1       -0.2076
      2 C         142.2682  143.1907  164.1071 C.ar    1  UNL1        0.1378
      3 C         141.9277  144.2352  163.0857 C.ar    1  UNL1        0.1713
      4 N         140.6399  144.8844  163.4983 N.ar    1  UNL1       -0.1135
      5 N         140.1846  144.2411  164.7745 N.ar    1  UNL1       -0.0583
      6 CL        140.9494  139.6451  169.9825 Cl      1  UNL1       -0.0814
      7 C         141.0097  140.5324  168.7745 C.ar    1  UNL1        0.0683
      8 C         139.8813  140.5319  167.7864 C.ar    1  UNL1        0.0138
      9 C         139.9416  141.4192  166.5785 C.ar    1  UNL1        0.0201
     10 C         141.1305  142.3070  166.3587 C.ar    1  UNL1        0.0854
     11 C         142.2590  142.3075  167.3469 C.ar    1  UNL1        0.0314
     12 C         142.1986  141.4202  168.5548 C.ar    1  UNL1        0.0697
     13 CL        143.3272  141.4208  169.5430 Cl      1  UNL1       -0.0813
     14 N         142.7335  144.5714  161.8661 N.pl3   1  UNL1       -0.3142
     15 H         143.1237  145.4697  161.7661 H       1  UNL1        0.1483
     16 C         142.9447  143.5389  160.7987 C.3     1  UNL1        0.1058
     17 C         144.2111  142.7354  160.7725 C.3     1  UNL1        0.0936
     18 N         144.4773  141.7201  161.8442 N.3     1  UNL1       -0.2712
     19 C         145.4184  142.0434  162.9665 C.3     1  UNL1        0.0721
     20 C         145.6845  141.0281  164.0382 C.3     1  UNL1        0.0174
     21 C         145.0097  139.6895  163.9874 C.3     1  UNL1        0.0029
     22 C         144.0685  139.3662  162.8650 C.3     1  UNL1        0.0174
     23 C         143.8024  140.3815  161.7934 C.3     1  UNL1        0.0721
@<TRIPOS>BOND
     1     6     7    1
     2     7     8   ar
     3     8     9   ar
     4     9    10   ar
     5    10     1    1
     6     1     2   ar
     7     2     3   ar
     8     3    14    1
     9    14    16    1
    10    16    17    1
    11    17    18    1
    12    18    19    1
    13    19    20    1
    14    20    21    1
    15    21    22    1
    16    22    23    1
    17     3     4   ar
    18     4     5   ar
    19    10    11   ar
    20    11    12   ar
    21    12    13    1
    22    12     7   ar
    23     5     1   ar
    24    23    18    1
    25    14    15    1
@<TRIPOS>MOLECULE
*****
 23 25 0 0 0
SMALL
GASTEIGER

@<TRIPOS>ATOM
      1 N         142.4185  139.3158  165.2359 N.ar    1  UNL1       -0.2076
      2 C         143.4065  140.2220  164.5633 C.ar    1  UNL1        0.1378
      3 C         143.7648  139.6157  163.2389 C.ar    1  UNL1        0.1713
      4 N         142.9982  138.3347  163.0930 N.ar    1  UNL1       -0.1135
      5 N         142.1661  138.1493  164.3273 N.ar    1  UNL1       -0.0583
      6 CL        139.9152  140.2010  170.6165 Cl      1  UNL1       -0.0814
      7 C         140.5410  139.9797  169.2713 C.ar    1  UNL1        0.0683
      8 C         139.6912  140.0045  168.0355 C.ar    1  UNL1        0.0138
      9 C         140.3170  139.7832  166.6904 C.ar    1  UNL1        0.0201
     10 C         141.7926  139.5371  166.5811 C.ar    1  UNL1        0.0854
     11 C         142.6424  139.5123  167.8169 C.ar    1  UNL1        0.0314
     12 C         142.0166  139.7336  169.1620 C.ar    1  UNL1        0.0697
     13 CL        142.8665  139.7088  170.3978 Cl      1  UNL1       -0.0813
     14 N         144.7217  140.1897  162.2364 N.pl3   1  UNL1       -0.3142
     15 H         145.6913  140.1495  162.4024 H       1  UNL1        0.1483
     16 C         144.2013  140.8248  160.9812 C.3     1  UNL1        0.1058
     17 C         144.2019  142.3181  160.8403 C.3     1  UNL1        0.0936
     18 N         143.5141  143.1686  161.8669 N.3     1  UNL1       -0.2712
     19 C         142.0446  143.0014  162.1167 C.3     1  UNL1        0.0721
     20 C         141.3568  143.8518  163.1433 C.3     1  UNL1        0.0174
     21 C         142.1386  144.8694  163.9199 C.3     1  UNL1        0.0029
     22 C         143.6082  145.0366  163.6701 C.3     1  UNL1        0.0174
     23 C         144.2959  144.1862  162.6435 C.3     1  UNL1        0.0721
@<TRIPOS>BOND
     1     6     7    1
     2     7     8   ar
     3     8     9   ar
     4     9    10   ar
     5    10     1    1
     6     1     2   ar
     7     2     3   ar
     8     3    14    1
     9    14    16    1
    10    16    17    1
    11    17    18    1
    12    18    19    1
    13    19    20    1
    14    20    21    1
    15    21    22    1
    16    22    23    1
    17     3     4   ar
    18     4     5   ar
    19    10    11   ar
    20    11    12   ar
    21    12    13    1
    22    12     7   ar
    23     5     1   ar
    24    23    18    1
    25    14    15    1
@<TRIPOS>MOLECULE
*****
 23 25 0 0 0
SMALL
GASTEIGER

@<TRIPOS>ATOM
      1 N         142.4542  139.1036  164.9507 N.ar    1  UNL1       -0.2076
      2 C         141.9247  138.2548  163.8331 C.ar    1  UNL1        0.1378
      3 C         142.9644  138.2093  162.7528 C.ar    1  UNL1        0.1713
      4 N         144.1365  139.0301  163.2028 N.ar    1  UNL1       -0.1135
      5 N         143.8212  139.5827  164.5612 N.ar    1  UNL1       -0.0583
      6 CL        139.6048  140.3614  170.0789 Cl      1  UNL1       -0.0814
      7 C         140.3171  140.0470  168.7969 C.ar    1  UNL1        0.0683
      8 C         139.5539  140.0019  167.5064 C.ar    1  UNL1        0.0138
      9 C         140.2663  139.6875  166.2243 C.ar    1  UNL1        0.0201
     10 C         141.7419  139.4181  166.2328 C.ar    1  UNL1        0.0854
     11 C         142.5050  139.4631  167.5233 C.ar    1  UNL1        0.0314
     12 C         141.7927  139.7776  168.8053 C.ar    1  UNL1        0.0697
     13 CL        142.5560  139.8226  170.0959 Cl      1  UNL1       -0.0813
     14 N         142.8517  137.4725  161.4511 N.pl3   1  UNL1       -0.3142
     15 H         142.9143  136.4901  161.4345 H       1  UNL1        0.1483
     16 C         142.6435  138.2325  160.1748 C.3     1  UNL1        0.1058
     17 C         141.2565  138.6021  159.7397 C.3     1  UNL1        0.0936
     18 N         140.2335  139.0070  160.7594 N.3     1  UNL1       -0.2712
     19 C         139.2009  138.0207  161.2184 C.3     1  UNL1        0.0721
     20 C         138.1780  138.4257  162.2382 C.3     1  UNL1        0.0174
     21 C         138.1877  139.8170  162.7987 C.3     1  UNL1        0.0029
     22 C         139.2204  140.8033  162.3396 C.3     1  UNL1        0.0174
     23 C         140.2433  140.3983  161.3199 C.3     1  UNL1        0.0721
@<TRIPOS>BOND
     1     6     7    1
     2     7     8   ar
     3     8     9   ar
     4     9    10   ar
     5    10     1    1
     6     1     2   ar
     7     2     3   ar
     8     3    14    1
     9    14    16    1
    10    16    17    1
    11    17    18    1
    12    18    19    1
    13    19    20    1
    14    20    21    1
    15    21    22    1
    16    22    23    1
    17     3     4   ar
    18     4     5   ar
    19    10    11   ar
    20    11    12   ar
    21    12    13    1
    22    12     7   ar
    23     5     1   ar
    24    23    18    1
    25    14    15    1
