@<TRIPOS>MOLECULE
*****
 32 35 0 0 0
SMALL
GASTEIGER

@<TRIPOS>ATOM
      1 C         144.0296  138.6995  162.4810 C.3     1  UNL1        0.1169
      2 N         143.2319  139.1645  163.6631 N.pl3   1  UNL1       -0.2584
      3 C         141.8713  138.5510  163.8122 C.3     1  UNL1        0.1216
      4 C         140.8429  138.8029  164.8748 C.ar    1  UNL1       -0.0041
      5 C         139.6106  137.9773  164.6516 C.ar    1  UNL1       -0.0029
      6 C         138.4567  138.0796  165.6045 C.ar    1  UNL1       -0.0003
      7 C         138.5351  139.0074  166.7805 C.ar    1  UNL1       -0.0003
      8 C         139.7674  139.8330  167.0036 C.ar    1  UNL1       -0.0023
      9 C         140.9213  139.7307  166.0508 C.ar    1  UNL1        0.0018
     10 C         142.0473  140.6357  166.4546 C.3     1  UNL1        0.1518
     11 N         143.3731  140.8365  165.7822 N.2     1  UNL1       -0.2172
     12 C         143.9002  140.1817  164.5399 C.2     1  UNL1        0.2843
     13 C         141.8172  141.4474  167.6949 C.ar    1  UNL1        0.0041
     14 C         142.6195  141.1710  168.9318 C.ar    1  UNL1       -0.0021
     15 C         142.3893  141.9827  170.1720 C.ar    1  UNL1       -0.0003
     16 C         141.3568  143.0706  170.1755 C.ar    1  UNL1       -0.0000
     17 C         140.5544  143.3471  168.9386 C.ar    1  UNL1       -0.0003
     18 C         140.7846  142.5354  167.6983 C.ar    1  UNL1       -0.0021
     19 O         145.2779  140.5993  164.1186 O.2     1  UNL1       -0.4449
     20 C         145.4766  141.8854  163.3727 C.3     1  UNL1        0.2350
     21 C         144.3371  142.8495  163.2232 C.ar    1  UNL1        0.0213
     22 C         144.1762  143.9775  164.1987 C.ar    1  UNL1        0.0006
     23 C         143.0368  144.9415  164.0493 C.ar    1  UNL1        0.0156
     24 C         142.0582  144.7775  162.9243 C.ar    1  UNL1        0.0644
     25 C         142.2191  143.6494  161.9488 C.ar    1  UNL1        0.0156
     26 C         143.3586  142.6854  162.0983 C.ar    1  UNL1        0.0006
     27 N         140.9188  145.7415  162.7748 N.pl3   1  UNL1       -0.2187
     28 H         141.0986  146.7035  162.6678 H       1  UNL1        0.1734
     29 S         139.5052  145.2397  162.7883 S.O2    1  UNL1        0.0558
     30 C         138.0917  144.7380  162.8017 C.3     1  UNL1        0.1996
     31 O         139.6531  144.8618  164.2323 O.2     1  UNL1       -0.1544
     32 O         139.3573  145.6176  161.3443 O.2     1  UNL1       -0.1544
@<TRIPOS>BOND
     1     1     2    1
     2     2     3    1
     3     3     4    1
     4     4     5   ar
     5     5     6   ar
     6     6     7   ar
     7     7     8   ar
     8     8     9   ar
     9     9    10    1
    10    10    13    1
    11    13    14   ar
    12    14    15   ar
    13    15    16   ar
    14    16    17   ar
    15    17    18   ar
    16    10    11    1
    17    11    12    2
    18    12    19    1
    19    19    20    1
    20    20    21    1
    21    21    22   ar
    22    22    23   ar
    23    23    24   ar
    24    24    27    1
    25    27    29    1
    26    29    30    1
    27    29    31    2
    28    29    32    2
    29    24    25   ar
    30    25    26   ar
    31    12     2    1
    32    26    21   ar
    33     9     4   ar
    34    18    13   ar
    35    27    28    1
@<TRIPOS>MOLECULE
*****
 32 35 0 0 0
SMALL
GASTEIGER

@<TRIPOS>ATOM
      1 C         144.5200  144.0210  162.3150 C.3     1  UNL1        0.1169
      2 N         143.4035  143.7570  163.2812 N.pl3   1  UNL1       -0.2584
      3 C         142.0672  144.3235  162.9024 C.3     1  UNL1        0.1216
      4 C         140.7683  144.2344  163.6473 C.ar    1  UNL1       -0.0041
      5 C         139.6671  144.9425  162.9153 C.ar    1  UNL1       -0.0029
      6 C         138.2824  144.9730  163.4911 C.ar    1  UNL1       -0.0003
      7 C         137.9989  144.2952  164.7989 C.ar    1  UNL1       -0.0003
      8 C         139.1001  143.5871  165.5309 C.ar    1  UNL1       -0.0023
      9 C         140.4848  143.5567  164.9551 C.ar    1  UNL1        0.0018
     10 C         141.4303  142.8007  165.8409 C.3     1  UNL1        0.1518
     11 N         142.8926  142.5358  165.6379 N.2     1  UNL1       -0.2172
     12 C         143.7708  142.9614  164.4986 C.2     1  UNL1        0.2843
     13 C         140.8345  142.2349  167.0959 C.ar    1  UNL1        0.0041
     14 C         140.3151  140.8277  167.1114 C.ar    1  UNL1       -0.0021
     15 C         139.7194  140.2620  168.3664 C.ar    1  UNL1       -0.0003
     16 C         139.6429  141.1032  169.6058 C.ar    1  UNL1       -0.0000
     17 C         140.1622  142.5104  169.5903 C.ar    1  UNL1       -0.0003
     18 C         140.7580  143.0763  168.3354 C.ar    1  UNL1       -0.0021
     19 O         145.2061  142.5349  164.5888 O.2     1  UNL1       -0.4449
     20 C         145.5894  141.1200  164.2711 C.3     1  UNL1        0.2350
     21 C         144.5289  140.1111  163.9433 C.ar    1  UNL1        0.0213
     22 C         143.8784  139.3230  165.0414 C.ar    1  UNL1        0.0006
     23 C         142.8179  138.3142  164.7136 C.ar    1  UNL1        0.0156
     24 C         142.4078  138.0934  163.2877 C.ar    1  UNL1        0.0644
     25 C         143.0583  138.8815  162.1897 C.ar    1  UNL1        0.0156
     26 C         144.1189  139.8904  162.5175 C.ar    1  UNL1        0.0006
     27 N         141.3473  137.0845  162.9599 N.pl3   1  UNL1       -0.2187
     28 H         141.5841  136.1333  162.8690 H       1  UNL1        0.1734
     29 S         139.9260  137.5251  162.7705 S.O2    1  UNL1        0.0558
     30 C         138.5047  137.9656  162.5811 C.3     1  UNL1        0.1996
     31 O         139.6905  137.4001  164.2466 O.2     1  UNL1       -0.1544
     32 O         140.1615  137.6501  161.2944 O.2     1  UNL1       -0.1544
@<TRIPOS>BOND
     1     1     2    1
     2     2     3    1
     3     3     4    1
     4     4     5   ar
     5     5     6   ar
     6     6     7   ar
     7     7     8   ar
     8     8     9   ar
     9     9    10    1
    10    10    13    1
    11    13    14   ar
    12    14    15   ar
    13    15    16   ar
    14    16    17   ar
    15    17    18   ar
    16    10    11    1
    17    11    12    2
    18    12    19    1
    19    19    20    1
    20    20    21    1
    21    21    22   ar
    22    22    23   ar
    23    23    24   ar
    24    24    27    1
    25    27    29    1
    26    29    30    1
    27    29    31    2
    28    29    32    2
    29    24    25   ar
    30    25    26   ar
    31    12     2    1
    32    26    21   ar
    33     9     4   ar
    34    18    13   ar
    35    27    28    1
@<TRIPOS>MOLECULE
*****
 32 35 0 0 0
SMALL
GASTEIGER

@<TRIPOS>ATOM
      1 C         140.4369  145.7542  162.3489 C.3     1  UNL1        0.1169
      2 N         141.1663  144.7458  163.1861 N.pl3   1  UNL1       -0.2584
      3 C         142.4488  144.2254  162.6079 C.3     1  UNL1        0.1216
      4 C         143.3986  143.2217  163.1916 C.ar    1  UNL1       -0.0041
      5 C         144.5675  142.9805  162.2831 C.ar    1  UNL1       -0.0029
      6 C         145.6382  142.0082  162.6807 C.ar    1  UNL1       -0.0003
      7 C         145.5400  141.2771  163.9868 C.ar    1  UNL1       -0.0003
      8 C         144.3711  141.5183  164.8953 C.ar    1  UNL1       -0.0023
      9 C         143.3004  142.4906  164.4977 C.ar    1  UNL1        0.0018
     10 C         142.2282  142.5826  165.5426 C.3     1  UNL1        0.1518
     11 N         140.9893  143.4284  165.5396 N.2     1  UNL1       -0.2172
     12 C         140.5168  144.3911  164.4908 C.2     1  UNL1        0.2843
     13 C         142.4202  141.7140  166.7503 C.ar    1  UNL1        0.0041
     14 C         142.0757  140.2553  166.6876 C.ar    1  UNL1       -0.0021
     15 C         142.2678  139.3868  167.8953 C.ar    1  UNL1       -0.0003
     16 C         142.8042  139.9766  169.1657 C.ar    1  UNL1       -0.0000
     17 C         143.1487  141.4352  169.2286 C.ar    1  UNL1       -0.0003
     18 C         142.9567  142.3039  168.0209 C.ar    1  UNL1       -0.0021
     19 O         139.2237  145.0917  164.7858 O.2     1  UNL1       -0.4449
     20 C         137.9248  144.3517  164.6633 C.3     1  UNL1        0.2350
     21 C         137.8558  143.0851  163.8628 C.ar    1  UNL1        0.0213
     22 C         137.8286  141.7574  164.5605 C.ar    1  UNL1        0.0006
     23 C         137.7596  140.4908  163.7599 C.ar    1  UNL1        0.0156
     24 C         137.7179  140.5518  162.2617 C.ar    1  UNL1        0.0644
     25 C         137.7451  141.8794  161.5641 C.ar    1  UNL1        0.0156
     26 C         137.8141  143.1460  162.3646 C.ar    1  UNL1        0.0006
     27 N         137.6489  139.2851  161.4611 N.pl3   1  UNL1       -0.2187
     28 H         136.8553  138.7058  161.5237 H       1  UNL1        0.1734
     29 S         138.7891  138.9011  160.5652 S.O2    1  UNL1        0.0558
     30 C         139.9292  138.5171  159.6694 C.3     1  UNL1        0.1996
     31 O         138.0655  139.4912  159.3913 O.2     1  UNL1       -0.1544
     32 O         139.5127  138.3110  161.7392 O.2     1  UNL1       -0.1544
@<TRIPOS>BOND
     1     1     2    1
     2     2     3    1
     3     3     4    1
     4     4     5   ar
     5     5     6   ar
     6     6     7   ar
     7     7     8   ar
     8     8     9   ar
     9     9    10    1
    10    10    13    1
    11    13    14   ar
    12    14    15   ar
    13    15    16   ar
    14    16    17   ar
    15    17    18   ar
    16    10    11    1
    17    11    12    2
    18    12    19    1
    19    19    20    1
    20    20    21    1
    21    21    22   ar
    22    22    23   ar
    23    23    24   ar
    24    24    27    1
    25    27    29    1
    26    29    30    1
    27    29    31    2
    28    29    32    2
    29    24    25   ar
    30    25    26   ar
    31    12     2    1
    32    26    21   ar
    33     9     4   ar
    34    18    13   ar
    35    27    28    1
@<TRIPOS>MOLECULE
*****
 32 35 0 0 0
SMALL
GASTEIGER

@<TRIPOS>ATOM
      1 C         138.0458  138.2589  162.6268 C.3     1  UNL1        0.1169
      2 N         138.5334  139.3121  163.5770 N.pl3   1  UNL1       -0.2584
      3 C         138.0505  140.7063  163.3068 C.3     1  UNL1        0.1216
      4 C         138.3543  141.9646  164.0647 C.ar    1  UNL1       -0.0041
      5 C         137.6649  143.1502  163.4572 C.ar    1  UNL1       -0.0029
      6 C         137.8372  144.5107  164.0650 C.ar    1  UNL1       -0.0003
      7 C         138.6989  144.6855  165.2802 C.ar    1  UNL1       -0.0003
      8 C         139.3883  143.5000  165.8877 C.ar    1  UNL1       -0.0023
      9 C         139.2161  142.1395  165.2799 C.ar    1  UNL1        0.0018
     10 C         139.9868  141.0992  166.0374 C.3     1  UNL1        0.1518
     11 N         140.0862  139.6272  165.7669 N.2     1  UNL1       -0.2172
     12 C         139.4393  138.8318  164.6719 C.2     1  UNL1        0.2843
     13 C         140.7604  141.5968  167.2223 C.ar    1  UNL1        0.0041
     14 C         140.0765  141.7691  168.5462 C.ar    1  UNL1       -0.0021
     15 C         140.8502  142.2667  169.7310 C.ar    1  UNL1       -0.0003
     16 C         142.3078  142.5921  169.5920 C.ar    1  UNL1       -0.0000
     17 C         142.9918  142.4199  168.2681 C.ar    1  UNL1       -0.0003
     18 C         142.2182  141.9222  167.0833 C.ar    1  UNL1       -0.0021
     19 O         139.7379  137.3619  164.6717 O.2     1  UNL1       -0.4449
     20 C         141.1304  136.8794  164.3924 C.3     1  UNL1        0.2350
     21 C         142.2140  137.8641  164.0661 C.ar    1  UNL1        0.0213
     22 C         143.0773  138.4190  165.1601 C.ar    1  UNL1        0.0006
     23 C         144.1609  139.4037  164.8339 C.ar    1  UNL1        0.0156
     24 C         144.3811  139.8333  163.4136 C.ar    1  UNL1        0.0644
     25 C         143.5178  139.2783  162.3197 C.ar    1  UNL1        0.0156
     26 C         142.4342  138.2937  162.6460 C.ar    1  UNL1        0.0006
     27 N         145.4646  140.8179  163.0874 N.pl3   1  UNL1       -0.2187
     28 H         146.4079  140.5367  163.1082 H       1  UNL1        0.1734
     29 S         145.1110  142.2310  162.7294 S.O2    1  UNL1        0.0558
     30 C         144.7574  143.6441  162.3713 C.3     1  UNL1        0.1996
     31 O         144.9441  142.5578  164.1838 O.2     1  UNL1       -0.1544
     32 O         145.2779  141.9043  161.2750 O.2     1  UNL1       -0.1544
@<TRIPOS>BOND
     1     1     2    1
     2     2     3    1
     3     3     4    1
     4     4     5   ar
     5     5     6   ar
     6     6     7   ar
     7     7     8   ar
     8     8     9   ar
     9     9    10    1
    10    10    13    1
    11    13    14   ar
    12    14    15   ar
    13    15    16   ar
    14    16    17   ar
    15    17    18   ar
    16    10    11    1
    17    11    12    2
    18    12    19    1
    19    19    20    1
    20    20    21    1
    21    21    22   ar
    22    22    23   ar
    23    23    24   ar
    24    24    27    1
    25    27    29    1
    26    29    30    1
    27    29    31    2
    28    29    32    2
    29    24    25   ar
    30    25    26   ar
    31    12     2    1
    32    26    21   ar
    33     9     4   ar
    34    18    13   ar
    35    27    28    1
@<TRIPOS>MOLECULE
*****
 32 35 0 0 0
SMALL
GASTEIGER

@<TRIPOS>ATOM
      1 C         139.0432  139.3029  161.9419 C.3     1  UNL1        0.1169
      2 N         139.5369  139.5981  163.3271 N.pl3   1  UNL1       -0.2584
      3 C         140.7873  138.8794  163.7395 C.3     1  UNL1        0.1216
      4 C         141.5246  138.9580  165.0434 C.ar    1  UNL1       -0.0041
      5 C         142.7353  138.0725  165.0426 C.ar    1  UNL1       -0.0029
      6 C         143.6150  138.0039  166.2556 C.ar    1  UNL1       -0.0003
      7 C         143.2840  138.8208  167.4693 C.ar    1  UNL1       -0.0003
      8 C         142.0733  139.7063  167.4701 C.ar    1  UNL1       -0.0023
      9 C         141.1936  139.7749  166.2571 C.ar    1  UNL1        0.0018
     10 C         140.0435  140.7148  166.4666 C.3     1  UNL1        0.1518
     11 N         138.9405  141.0701  165.5143 N.2     1  UNL1       -0.2172
     12 C         138.7151  140.5731  164.1171 C.2     1  UNL1        0.2843
     13 C         139.9894  141.3887  167.8057 C.ar    1  UNL1        0.0041
     14 C         140.5085  142.7872  167.9632 C.ar    1  UNL1       -0.0021
     15 C         140.4543  143.4609  169.3022 C.ar    1  UNL1       -0.0003
     16 C         139.8812  142.7363  170.4838 C.ar    1  UNL1       -0.0000
     17 C         139.3621  141.3378  170.3264 C.ar    1  UNL1       -0.0003
     18 C         139.4162  140.6640  168.9874 C.ar    1  UNL1       -0.0021
     19 O         137.5081  141.1240  163.4172 O.2     1  UNL1       -0.4449
     20 C         137.3712  142.6032  163.2101 C.3     1  UNL1        0.2350
     21 C         138.3790  143.3406  162.3790 C.ar    1  UNL1        0.0213
     22 C         138.8002  142.7910  161.0484 C.ar    1  UNL1        0.0006
     23 C         139.8080  143.5284  160.2173 C.ar    1  UNL1        0.0156
     24 C         140.3945  144.8155  160.7169 C.ar    1  UNL1        0.0644
     25 C         139.9733  145.3650  162.0475 C.ar    1  UNL1        0.0156
     26 C         138.9655  144.6276  162.8785 C.ar    1  UNL1        0.0006
     27 N         141.4023  145.5529  159.8859 N.pl3   1  UNL1       -0.2187
     28 H         142.0440  146.1627  160.3166 H       1  UNL1        0.1734
     29 S         141.4323  145.3611  158.3984 S.O2    1  UNL1        0.0558
     30 C         141.4624  145.1693  156.9111 C.3     1  UNL1        0.1996
     31 O         140.1786  146.1742  158.2682 O.2     1  UNL1       -0.1544
     32 O         142.6860  144.5480  158.5286 O.2     1  UNL1       -0.1544
@<TRIPOS>BOND
     1     1     2    1
     2     2     3    1
     3     3     4    1
     4     4     5   ar
     5     5     6   ar
     6     6     7   ar
     7     7     8   ar
     8     8     9   ar
     9     9    10    1
    10    10    13    1
    11    13    14   ar
    12    14    15   ar
    13    15    16   ar
    14    16    17   ar
    15    17    18   ar
    16    10    11    1
    17    11    12    2
    18    12    19    1
    19    19    20    1
    20    20    21    1
    21    21    22   ar
    22    22    23   ar
    23    23    24   ar
    24    24    27    1
    25    27    29    1
    26    29    30    1
    27    29    31    2
    28    29    32    2
    29    24    25   ar
    30    25    26   ar
    31    12     2    1
    32    26    21   ar
    33     9     4   ar
    34    18    13   ar
    35    27    28    1
@<TRIPOS>MOLECULE
*****
 32 35 0 0 0
SMALL
GASTEIGER

@<TRIPOS>ATOM
      1 C         138.1021  143.4762  162.0966 C.3     1  UNL1        0.1169
      2 N         138.6482  142.9893  163.4060 N.pl3   1  UNL1       -0.2584
      3 C         138.1897  141.6275  163.8364 C.3     1  UNL1        0.1216
      4 C         138.5502  140.8686  165.0790 C.ar    1  UNL1       -0.0041
      5 C         137.8684  139.5333  165.1229 C.ar    1  UNL1       -0.0029
      6 C         138.0947  138.6135  166.2859 C.ar    1  UNL1       -0.0003
      7 C         139.0028  139.0290  167.4051 C.ar    1  UNL1       -0.0003
      8 C         139.6847  140.3643  167.3612 C.ar    1  UNL1       -0.0023
      9 C         139.4584  141.2841  166.1982 C.ar    1  UNL1        0.0018
     10 C         140.2303  142.5611  166.3511 C.3     1  UNL1        0.1518
     11 N         140.2847  143.7381  165.4228 N.2     1  UNL1       -0.2172
     12 C         139.5805  143.9286  164.1120 C.2     1  UNL1        0.2843
     13 C         141.0572  142.6765  167.5973 C.ar    1  UNL1        0.0041
     14 C         142.4729  142.1806  167.6067 C.ar    1  UNL1       -0.0021
     15 C         143.2996  142.2960  168.8529 C.ar    1  UNL1       -0.0003
     16 C         142.7109  142.9072  170.0897 C.ar    1  UNL1       -0.0000
     17 C         141.2953  143.4031  170.0803 C.ar    1  UNL1       -0.0003
     18 C         140.4684  143.2878  168.8342 C.ar    1  UNL1       -0.0021
     19 O         139.8436  145.2306  163.4152 O.2     1  UNL1       -0.4449
     20 C         141.0963  145.4107  162.6101 C.3     1  UNL1        0.2350
     21 C         141.9897  144.2364  162.3402 C.ar    1  UNL1        0.0213
     22 C         141.6676  143.2904  161.2215 C.ar    1  UNL1        0.0006
     23 C         142.5610  142.1161  160.9517 C.ar    1  UNL1        0.0156
     24 C         143.7766  141.8878  161.8005 C.ar    1  UNL1        0.0644
     25 C         144.0986  142.8338  162.9191 C.ar    1  UNL1        0.0156
     26 C         143.2052  144.0081  163.1890 C.ar    1  UNL1        0.0006
     27 N         144.6700  140.7135  161.5307 N.pl3   1  UNL1       -0.2187
     28 H         145.6274  140.8547  161.3498 H       1  UNL1        0.1734
     29 S         144.1047  139.3241  161.5364 S.O2    1  UNL1        0.0558
     30 C         143.5394  137.9347  161.5422 C.3     1  UNL1        0.1996
     31 O         144.2776  139.2475  160.0484 O.2     1  UNL1       -0.1544
     32 O         143.9318  139.4006  163.0244 O.2     1  UNL1       -0.1544
@<TRIPOS>BOND
     1     1     2    1
     2     2     3    1
     3     3     4    1
     4     4     5   ar
     5     5     6   ar
     6     6     7   ar
     7     7     8   ar
     8     8     9   ar
     9     9    10    1
    10    10    13    1
    11    13    14   ar
    12    14    15   ar
    13    15    16   ar
    14    16    17   ar
    15    17    18   ar
    16    10    11    1
    17    11    12    2
    18    12    19    1
    19    19    20    1
    20    20    21    1
    21    21    22   ar
    22    22    23   ar
    23    23    24   ar
    24    24    27    1
    25    27    29    1
    26    29    30    1
    27    29    31    2
    28    29    32    2
    29    24    25   ar
    30    25    26   ar
    31    12     2    1
    32    26    21   ar
    33     9     4   ar
    34    18    13   ar
    35    27    28    1
@<TRIPOS>MOLECULE
*****
 32 35 0 0 0
SMALL
GASTEIGER

@<TRIPOS>ATOM
      1 C         144.0343  144.3240  162.5515 C.3     1  UNL1        0.1169
      2 N         143.5432  143.3709  163.6004 N.pl3   1  UNL1       -0.2584
      3 C         144.2715  142.0622  163.6830 C.3     1  UNL1        0.1216
      4 C         144.0253  140.9118  164.6135 C.ar    1  UNL1       -0.0041
      5 C         144.9853  139.7873  164.3609 C.ar    1  UNL1       -0.0029
      6 C         144.9099  138.5371  165.1862 C.ar    1  UNL1       -0.0003
      7 C         143.8744  138.4113  166.2642 C.ar    1  UNL1       -0.0003
      8 C         142.9143  139.5358  166.5168 C.ar    1  UNL1       -0.0023
      9 C         142.9898  140.7860  165.6915 C.ar    1  UNL1        0.0018
     10 C         141.9449  141.7796  166.1050 C.3     1  UNL1        0.1518
     11 N         141.6773  143.1443  165.5428 N.2     1  UNL1       -0.2172
     12 C         142.3887  143.8524  164.4281 C.2     1  UNL1        0.2843
     13 C         141.0490  141.3519  167.2295 C.ar    1  UNL1        0.0041
     14 C         139.9821  140.3251  166.9895 C.ar    1  UNL1       -0.0021
     15 C         139.0862  139.8974  168.1141 C.ar    1  UNL1       -0.0003
     16 C         139.2572  140.4964  169.4785 C.ar    1  UNL1       -0.0000
     17 C         140.3241  141.5232  169.7186 C.ar    1  UNL1       -0.0003
     18 C         141.2200  141.9509  168.5941 C.ar    1  UNL1       -0.0021
     19 O         141.8779  145.2235  164.0975 O.2     1  UNL1       -0.4449
     20 C         140.6181  145.3821  163.2990 C.3     1  UNL1        0.2350
     21 C         139.7547  144.1888  163.0152 C.ar    1  UNL1        0.0213
     22 C         138.5997  143.8674  163.9167 C.ar    1  UNL1        0.0006
     23 C         137.7363  142.6741  163.6330 C.ar    1  UNL1        0.0156
     24 C         138.0279  141.8022  162.4477 C.ar    1  UNL1        0.0644
     25 C         139.1829  142.1237  161.5462 C.ar    1  UNL1        0.0156
     26 C         140.0463  143.3170  161.8300 C.ar    1  UNL1        0.0006
     27 N         137.1645  140.6089  162.1639 N.pl3   1  UNL1       -0.2187
     28 H         136.1840  140.6970  162.1744 H       1  UNL1        0.1734
     29 S         137.7950  139.2812  161.8641 S.O2    1  UNL1        0.0558
     30 C         138.4255  137.9536  161.5642 C.3     1  UNL1        0.1996
     31 O         138.2461  139.1733  163.2905 O.2     1  UNL1       -0.1544
     32 O         137.3439  139.3892  160.4376 O.2     1  UNL1       -0.1544
@<TRIPOS>BOND
     1     1     2    1
     2     2     3    1
     3     3     4    1
     4     4     5   ar
     5     5     6   ar
     6     6     7   ar
     7     7     8   ar
     8     8     9   ar
     9     9    10    1
    10    10    13    1
    11    13    14   ar
    12    14    15   ar
    13    15    16   ar
    14    16    17   ar
    15    17    18   ar
    16    10    11    1
    17    11    12    2
    18    12    19    1
    19    19    20    1
    20    20    21    1
    21    21    22   ar
    22    22    23   ar
    23    23    24   ar
    24    24    27    1
    25    27    29    1
    26    29    30    1
    27    29    31    2
    28    29    32    2
    29    24    25   ar
    30    25    26   ar
    31    12     2    1
    32    26    21   ar
    33     9     4   ar
    34    18    13   ar
    35    27    28    1
@<TRIPOS>MOLECULE
*****
 32 35 0 0 0
SMALL
GASTEIGER

@<TRIPOS>ATOM
      1 C         139.3868  142.7728  161.7038 C.3     1  UNL1        0.1169
      2 N         139.6539  142.4574  163.1457 N.pl3   1  UNL1       -0.2584
      3 C         138.9000  141.2883  163.7067 C.3     1  UNL1        0.1216
      4 C         138.9455  140.7258  165.0965 C.ar    1  UNL1       -0.0041
      5 C         138.0307  139.5458  165.2404 C.ar    1  UNL1       -0.0029
      6 C         137.9266  138.8336  166.5564 C.ar    1  UNL1       -0.0003
      7 C         138.7374  139.3014  167.7285 C.ar    1  UNL1       -0.0003
      8 C         139.6522  140.4814  167.5846 C.ar    1  UNL1       -0.0023
      9 C         139.7563  141.1936  166.2686 C.ar    1  UNL1        0.0018
     10 C         140.7217  142.3394  166.3403 C.3     1  UNL1        0.1518
     11 N         141.1148  143.3004  165.2578 N.2     1  UNL1       -0.2172
     12 C         140.6396  143.3529  163.8360 C.2     1  UNL1        0.2843
     13 C         141.3812  142.5523  167.6706 C.ar    1  UNL1        0.0041
     14 C         140.6261  143.2146  168.7848 C.ar    1  UNL1       -0.0021
     15 C         141.2857  143.4276  170.1150 C.ar    1  UNL1       -0.0003
     16 C         142.7003  142.9782  170.3313 C.ar    1  UNL1       -0.0000
     17 C         143.4554  142.3159  169.2172 C.ar    1  UNL1       -0.0003
     18 C         142.7959  142.1029  167.8869 C.ar    1  UNL1       -0.0021
     19 O         141.2279  144.4453  162.9931 O.2     1  UNL1       -0.4449
     20 C         142.6013  144.2867  162.4114 C.3     1  UNL1        0.2350
     21 C         142.9490  143.0510  161.6353 C.ar    1  UNL1        0.0213
     22 C         143.5659  141.8755  162.3337 C.ar    1  UNL1        0.0006
     23 C         143.9135  140.6399  161.5576 C.ar    1  UNL1        0.0156
     24 C         143.6443  140.5797  160.0831 C.ar    1  UNL1        0.0644
     25 C         143.0274  141.7552  159.3848 C.ar    1  UNL1        0.0156
     26 C         142.6798  142.9909  160.1609 C.ar    1  UNL1        0.0006
     27 N         143.9920  139.3441  159.3070 N.pl3   1  UNL1       -0.2187
     28 H         144.9064  138.9812  159.3431 H       1  UNL1        0.1734
     29 S         142.9463  138.6614  158.4760 S.O2    1  UNL1        0.0558
     30 C         141.9007  137.9788  157.6449 C.3     1  UNL1        0.1996
     31 O         142.1830  138.3159  159.7201 O.2     1  UNL1       -0.1544
     32 O         143.7096  139.0069  157.2318 O.2     1  UNL1       -0.1544
@<TRIPOS>BOND
     1     1     2    1
     2     2     3    1
     3     3     4    1
     4     4     5   ar
     5     5     6   ar
     6     6     7   ar
     7     7     8   ar
     8     8     9   ar
     9     9    10    1
    10    10    13    1
    11    13    14   ar
    12    14    15   ar
    13    15    16   ar
    14    16    17   ar
    15    17    18   ar
    16    10    11    1
    17    11    12    2
    18    12    19    1
    19    19    20    1
    20    20    21    1
    21    21    22   ar
    22    22    23   ar
    23    23    24   ar
    24    24    27    1
    25    27    29    1
    26    29    30    1
    27    29    31    2
    28    29    32    2
    29    24    25   ar
    30    25    26   ar
    31    12     2    1
    32    26    21   ar
    33     9     4   ar
    34    18    13   ar
    35    27    28    1
@<TRIPOS>MOLECULE
*****
 32 35 0 0 0
SMALL
GASTEIGER

@<TRIPOS>ATOM
      1 C         143.9324  144.9071  164.2002 C.3     1  UNL1        0.1169
      2 N         142.7576  143.9768  164.2644 N.pl3   1  UNL1       -0.2584
      3 C         141.4451  144.5543  163.8242 C.3     1  UNL1        0.1216
      4 C         140.1014  143.8897  163.7711 C.ar    1  UNL1       -0.0041
      5 C         139.0454  144.8281  163.2670 C.ar    1  UNL1       -0.0029
      6 C         137.6263  144.3599  163.1370 C.ar    1  UNL1       -0.0003
      7 C         137.2632  142.9534  163.5111 C.ar    1  UNL1       -0.0003
      8 C         138.3193  142.0151  164.0152 C.ar    1  UNL1       -0.0023
      9 C         139.7384  142.4832  164.1453 C.ar    1  UNL1        0.0018
     10 C         140.6294  141.3940  164.6648 C.3     1  UNL1        0.1518
     11 N         142.1034  141.4423  164.9385 N.2     1  UNL1       -0.2172
     12 C         143.0505  142.5917  164.7603 C.2     1  UNL1        0.2843
     13 C         139.9574  140.0832  164.9481 C.ar    1  UNL1        0.0041
     14 C         140.1296  138.9321  164.0018 C.ar    1  UNL1       -0.0021
     15 C         139.4576  137.6213  164.2851 C.ar    1  UNL1       -0.0003
     16 C         138.6135  137.4616  165.5146 C.ar    1  UNL1       -0.0000
     17 C         138.4412  138.6126  166.4609 C.ar    1  UNL1       -0.0003
     18 C         139.1132  139.9234  166.1777 C.ar    1  UNL1       -0.0021
     19 O         144.4796  142.3202  165.1265 O.2     1  UNL1       -0.4449
     20 C         145.4006  141.6807  164.1301 C.3     1  UNL1        0.2350
     21 C         144.8980  141.3312  162.7608 C.ar    1  UNL1        0.0213
     22 C         144.4320  139.9361  162.4664 C.ar    1  UNL1        0.0006
     23 C         143.9294  139.5866  161.0970 C.ar    1  UNL1        0.0156
     24 C         143.8928  140.6321  160.0220 C.ar    1  UNL1        0.0644
     25 C         144.3588  142.0271  160.3164 C.ar    1  UNL1        0.0156
     26 C         144.8614  142.3767  161.6858 C.ar    1  UNL1        0.0006
     27 N         143.3902  140.2826  158.6526 N.pl3   1  UNL1       -0.2187
     28 H         143.8116  140.6810  157.8570 H       1  UNL1        0.1734
     29 S         142.2456  139.3260  158.4953 S.O2    1  UNL1        0.0558
     30 C         141.1009  138.3694  158.3381 C.3     1  UNL1        0.1996
     31 O         143.1904  138.2794  157.9838 O.2     1  UNL1       -0.1544
     32 O         141.3007  140.3726  159.0069 O.2     1  UNL1       -0.1544
@<TRIPOS>BOND
     1     1     2    1
     2     2     3    1
     3     3     4    1
     4     4     5   ar
     5     5     6   ar
     6     6     7   ar
     7     7     8   ar
     8     8     9   ar
     9     9    10    1
    10    10    13    1
    11    13    14   ar
    12    14    15   ar
    13    15    16   ar
    14    16    17   ar
    15    17    18   ar
    16    10    11    1
    17    11    12    2
    18    12    19    1
    19    19    20    1
    20    20    21    1
    21    21    22   ar
    22    22    23   ar
    23    23    24   ar
    24    24    27    1
    25    27    29    1
    26    29    30    1
    27    29    31    2
    28    29    32    2
    29    24    25   ar
    30    25    26   ar
    31    12     2    1
    32    26    21   ar
    33     9     4   ar
    34    18    13   ar
    35    27    28    1
