@<TRIPOS>MOLECULE
*****
 30 32 0 0 0
SMALL
GASTEIGER

@<TRIPOS>ATOM
      1 C         140.1945  138.5273  163.2569 C.ar    1  UNL1        0.1005
      2 C         138.9341  137.7760  163.5683 C.ar    1  UNL1        0.1193
      3 N         138.3241  137.8685  164.9356 N.ar    1  UNL1       -0.2265
      4 C         138.9746  138.7122  165.9915 C.ar    1  UNL1        0.1433
      5 N         138.3646  138.8047  167.3587 N.pl3   1  UNL1       -0.3414
      6 C         140.2350  139.4635  165.6801 C.ar    1  UNL1        0.1138
      7 N         140.8449  139.3711  164.3128 N.ar    1  UNL1       -0.2409
      8 H         137.5374  138.3116  167.5631 H       1  UNL1        0.1438
      9 H         138.7916  139.3585  168.0518 H       1  UNL1        0.1438
     10 C         142.0243  138.2499  159.1551 C.ar    1  UNL1        0.1057
     11 C         142.8214  137.8486  160.3607 C.ar    1  UNL1        0.0184
     12 C         142.2115  137.9410  161.7280 C.ar    1  UNL1        0.0029
     13 C         140.8044  138.4349  161.8897 C.ar    1  UNL1        0.0193
     14 C         140.0073  138.8362  160.6841 C.ar    1  UNL1        0.0029
     15 C         140.6172  138.7437  159.3168 C.ar    1  UNL1        0.0184
     16 S         142.6342  138.1575  157.7879 S.O2    1  UNL1        0.0087
     17 O         143.7539  139.0540  158.2267 O.2     1  UNL1       -0.1686
     18 O         141.5146  137.2609  157.3490 O.2     1  UNL1       -0.1686
     19 C         143.6722  136.7334  155.8788 C.3     1  UNL1        0.0276
     20 C         143.2442  138.0650  156.4206 C.3     1  UNL1        0.1560
     21 C         140.8855  140.3073  166.7361 C.ar    1  UNL1        0.0395
     22 C         142.0091  139.7472  167.5569 C.ar    1  UNL1        0.0046
     23 C         142.6596  140.5909  168.6128 C.ar    1  UNL1        0.0232
     24 C         142.1865  141.9948  168.8479 C.ar    1  UNL1        0.1526
     25 N         141.0629  142.5550  168.0270 N.ar    1  UNL1       -0.2398
     26 C         140.4124  141.7112  166.9711 C.ar    1  UNL1        0.1003
     27 C         142.8370  142.8385  169.9038 C.3     1  UNL1        0.4348
     28 F         143.4875  143.6823  170.9597 F       1  UNL1       -0.1644
     29 F         141.6247  143.7208  169.9456 F       1  UNL1       -0.1644
     30 F         144.0493  141.9562  169.8619 F       1  UNL1       -0.1644
@<TRIPOS>BOND
     1    19    20    1
     2    20    16    1
     3    16    17    2
     4    16    18    2
     5    16    10    1
     6    10    11   ar
     7    11    12   ar
     8    12    13   ar
     9    13     1    1
    10     1     2   ar
    11     2     3   ar
    12     3     4   ar
    13     4     5    1
    14     4     6   ar
    15     6    21    1
    16    21    22   ar
    17    22    23   ar
    18    23    24   ar
    19    24    27    1
    20    27    28    1
    21    27    29    1
    22    27    30    1
    23    24    25   ar
    24    25    26   ar
    25     6     7   ar
    26    13    14   ar
    27    14    15   ar
    28    15    10   ar
    29     7     1   ar
    30    26    21   ar
    31     5     8    1
    32     5     9    1
@<TRIPOS>MOLECULE
*****
 30 32 0 0 0
SMALL
GASTEIGER

@<TRIPOS>ATOM
      1 C         139.3180  140.6252  161.1143 C.ar    1  UNL1        0.1005
      2 C         138.4168  141.7593  160.7250 C.ar    1  UNL1        0.1193
      3 N         137.7597  142.5929  161.7849 N.ar    1  UNL1       -0.2265
      4 C         138.0037  142.2924  163.2340 C.ar    1  UNL1        0.1433
      5 N         137.3466  143.1259  164.2939 N.pl3   1  UNL1       -0.3414
      6 C         138.9050  141.1583  163.6233 C.ar    1  UNL1        0.1138
      7 N         139.5621  140.3247  162.5634 N.ar    1  UNL1       -0.2409
      8 H         136.7551  143.8703  164.0384 H       1  UNL1        0.1438
      9 H         137.5068  142.9287  165.2450 H       1  UNL1        0.1438
     10 C         141.2895  138.1246  157.9346 C.ar    1  UNL1        0.1057
     11 C         139.9135  138.6772  157.7083 C.ar    1  UNL1        0.0184
     12 C         139.2564  139.5108  158.7682 C.ar    1  UNL1        0.0029
     13 C         139.9752  139.7917  160.0544 C.ar    1  UNL1        0.0193
     14 C         141.3511  139.2390  160.2807 C.ar    1  UNL1        0.0029
     15 C         142.0083  138.4054  159.2208 C.ar    1  UNL1        0.0184
     16 S         141.9466  137.2910  156.8748 S.O2    1  UNL1        0.0087
     17 O         143.2931  137.7591  157.3415 O.2     1  UNL1       -0.1686
     18 O         140.6001  136.8229  156.4080 O.2     1  UNL1       -0.1686
     19 C         144.0998  136.4127  155.7162 C.3     1  UNL1        0.0276
     20 C         142.6037  136.4574  155.8149 C.3     1  UNL1        0.1560
     21 C         139.1491  140.8577  165.0725 C.ar    1  UNL1        0.0395
     22 C         138.4294  139.7199  165.7340 C.ar    1  UNL1        0.0046
     23 C         138.6734  139.4193  167.1831 C.ar    1  UNL1        0.0232
     24 C         139.6373  140.2564  167.9708 C.ar    1  UNL1        0.1526
     25 N         140.3569  141.3942  167.3093 N.ar    1  UNL1       -0.2398
     26 C         140.1128  141.6948  165.8601 C.ar    1  UNL1        0.1003
     27 C         139.8813  139.9558  169.4199 C.3     1  UNL1        0.4348
     28 F         140.1254  139.6552  170.8691 F       1  UNL1       -0.1644
     29 F         141.2862  139.5410  169.0973 F       1  UNL1       -0.1644
     30 F         138.4764  140.3706  169.7426 F       1  UNL1       -0.1644
@<TRIPOS>BOND
     1    19    20    1
     2    20    16    1
     3    16    17    2
     4    16    18    2
     5    16    10    1
     6    10    11   ar
     7    11    12   ar
     8    12    13   ar
     9    13     1    1
    10     1     2   ar
    11     2     3   ar
    12     3     4   ar
    13     4     5    1
    14     4     6   ar
    15     6    21    1
    16    21    22   ar
    17    22    23   ar
    18    23    24   ar
    19    24    27    1
    20    27    28    1
    21    27    29    1
    22    27    30    1
    23    24    25   ar
    24    25    26   ar
    25     6     7   ar
    26    13    14   ar
    27    14    15   ar
    28    15    10   ar
    29     7     1   ar
    30    26    21   ar
    31     5     8    1
    32     5     9    1
@<TRIPOS>MOLECULE
*****
 30 32 0 0 0
SMALL
GASTEIGER

@<TRIPOS>ATOM
      1 C         139.6577  140.6184  162.2610 C.ar    1  UNL1        0.1005
      2 C         138.6852  139.5215  161.9430 C.ar    1  UNL1        0.1193
      3 N         138.4070  138.4493  162.9544 N.ar    1  UNL1       -0.2265
      4 C         139.1012  138.4739  164.2838 C.ar    1  UNL1        0.1433
      5 N         138.8230  137.4017  165.2952 N.pl3   1  UNL1       -0.3414
      6 C         140.0737  139.5708  164.6019 C.ar    1  UNL1        0.1138
      7 N         140.3519  140.6430  163.5905 N.ar    1  UNL1       -0.2409
      8 H         138.1847  136.6818  165.0865 H       1  UNL1        0.1438
      9 H         139.2787  137.4178  166.1678 H       1  UNL1        0.1438
     10 C         140.4923  143.8351  159.2269 C.ar    1  UNL1        0.1057
     11 C         141.5511  143.4423  160.2141 C.ar    1  UNL1        0.0184
     12 C         141.2729  142.3701  161.2255 C.ar    1  UNL1        0.0029
     13 C         139.9359  141.6906  161.2497 C.ar    1  UNL1        0.0193
     14 C         138.8771  142.0834  160.2625 C.ar    1  UNL1        0.0029
     15 C         139.1553  143.1556  159.2511 C.ar    1  UNL1        0.0184
     16 S         140.7705  144.9073  158.2155 S.O2    1  UNL1        0.0087
     17 O         139.7837  144.2783  157.2772 O.2     1  UNL1       -0.1686
     18 O         141.7574  145.5363  159.1538 O.2     1  UNL1       -0.1686
     19 C         139.9136  146.6382  156.4778 C.3     1  UNL1        0.0276
     20 C         141.0488  145.9795  157.2041 C.3     1  UNL1        0.1560
     21 C         140.7680  139.5954  165.9313 C.ar    1  UNL1        0.0395
     22 C         142.1563  139.0429  166.0628 C.ar    1  UNL1        0.0046
     23 C         142.8506  139.0676  167.3921 C.ar    1  UNL1        0.0232
     24 C         142.1565  139.6448  168.5902 C.ar    1  UNL1        0.1526
     25 N         140.7682  140.1973  168.4588 N.ar    1  UNL1       -0.2398
     26 C         140.0739  140.1726  167.1293 C.ar    1  UNL1        0.1003
     27 C         142.8508  139.6694  169.9196 C.3     1  UNL1        0.4348
     28 F         143.5451  139.6941  171.2489 F       1  UNL1       -0.1644
     29 F         142.5455  138.2127  170.1060 F       1  UNL1       -0.1644
     30 F         143.1562  141.1261  169.7331 F       1  UNL1       -0.1644
@<TRIPOS>BOND
     1    19    20    1
     2    20    16    1
     3    16    17    2
     4    16    18    2
     5    16    10    1
     6    10    11   ar
     7    11    12   ar
     8    12    13   ar
     9    13     1    1
    10     1     2   ar
    11     2     3   ar
    12     3     4   ar
    13     4     5    1
    14     4     6   ar
    15     6    21    1
    16    21    22   ar
    17    22    23   ar
    18    23    24   ar
    19    24    27    1
    20    27    28    1
    21    27    29    1
    22    27    30    1
    23    24    25   ar
    24    25    26   ar
    25     6     7   ar
    26    13    14   ar
    27    14    15   ar
    28    15    10   ar
    29     7     1   ar
    30    26    21   ar
    31     5     8    1
    32     5     9    1
@<TRIPOS>MOLECULE
*****
 30 32 0 0 0
SMALL
GASTEIGER

@<TRIPOS>ATOM
      1 C         142.3282  143.5714  161.8643 C.ar    1  UNL1        0.1005
      2 C         143.5842  143.9965  162.5654 C.ar    1  UNL1        0.1193
      3 N         143.9263  143.4193  163.9070 N.ar    1  UNL1       -0.2265
      4 C         143.0125  142.4171  164.5475 C.ar    1  UNL1        0.1433
      5 N         143.3546  141.8399  165.8890 N.pl3   1  UNL1       -0.3414
      6 C         141.7564  141.9919  163.8463 C.ar    1  UNL1        0.1138
      7 N         141.4143  142.5691  162.5047 N.ar    1  UNL1       -0.2409
      8 H         144.1790  142.1189  166.3492 H       1  UNL1        0.1438
      9 H         142.7548  141.1821  166.3094 H       1  UNL1        0.1438
     10 C         141.3018  145.3028  157.8395 C.ar    1  UNL1        0.1057
     11 C         142.3859  144.2730  157.9586 C.ar    1  UNL1        0.0184
     12 C         142.7280  143.6958  159.3002 C.ar    1  UNL1        0.0029
     13 C         141.9861  144.1485  160.5227 C.ar    1  UNL1        0.0193
     14 C         140.9020  145.1783  160.4036 C.ar    1  UNL1        0.0029
     15 C         140.5599  145.7555  159.0621 C.ar    1  UNL1        0.0184
     16 S         140.9597  145.8800  156.4980 S.O2    1  UNL1        0.0087
     17 O         142.1189  145.1491  155.8879 O.2     1  UNL1       -0.1686
     18 O         139.8005  146.6108  157.1080 O.2     1  UNL1       -0.1686
     19 C         139.3937  147.3095  154.9966 C.3     1  UNL1        0.0276
     20 C         140.6176  146.4571  155.1564 C.3     1  UNL1        0.1560
     21 C         140.8425  140.9896  164.4868 C.ar    1  UNL1        0.0395
     22 C         141.1886  139.5305  164.4537 C.ar    1  UNL1        0.0046
     23 C         140.2747  138.5282  165.0941 C.ar    1  UNL1        0.0232
     24 C         139.0146  138.9850  165.7676 C.ar    1  UNL1        0.1526
     25 N         138.6685  140.4441  165.8007 N.ar    1  UNL1       -0.2398
     26 C         139.5825  141.4464  165.1602 C.ar    1  UNL1        0.1003
     27 C         138.1007  137.9827  166.4080 C.3     1  UNL1        0.4348
     28 F         137.1869  136.9804  167.0484 F       1  UNL1       -0.1644
     29 F         137.7069  138.9997  167.4377 F       1  UNL1       -0.1644
     30 F         138.4946  136.9656  165.3782 F       1  UNL1       -0.1644
@<TRIPOS>BOND
     1    19    20    1
     2    20    16    1
     3    16    17    2
     4    16    18    2
     5    16    10    1
     6    10    11   ar
     7    11    12   ar
     8    12    13   ar
     9    13     1    1
    10     1     2   ar
    11     2     3   ar
    12     3     4   ar
    13     4     5    1
    14     4     6   ar
    15     6    21    1
    16    21    22   ar
    17    22    23   ar
    18    23    24   ar
    19    24    27    1
    20    27    28    1
    21    27    29    1
    22    27    30    1
    23    24    25   ar
    24    25    26   ar
    25     6     7   ar
    26    13    14   ar
    27    14    15   ar
    28    15    10   ar
    29     7     1   ar
    30    26    21   ar
    31     5     8    1
    32     5     9    1
@<TRIPOS>MOLECULE
*****
 30 32 0 0 0
SMALL
GASTEIGER

@<TRIPOS>ATOM
      1 C         140.8499  143.2273  161.5480 C.ar    1  UNL1        0.1005
      2 C         139.7408  144.1884  161.2382 C.ar    1  UNL1        0.1193
      3 N         138.6952  144.4855  162.2718 N.ar    1  UNL1       -0.2265
      4 C         138.7587  143.8215  163.6153 C.ar    1  UNL1        0.1433
      5 N         137.7130  144.1185  164.6489 N.pl3   1  UNL1       -0.3414
      6 C         139.8678  142.8603  163.9251 C.ar    1  UNL1        0.1138
      7 N         140.9134  142.5633  162.8915 N.ar    1  UNL1       -0.2409
      8 H         136.9851  144.7494  164.4455 H       1  UNL1        0.1438
      9 H         137.7547  143.6827  165.5307 H       1  UNL1        0.1438
     10 C         143.9869  142.3361  158.4471 C.ar    1  UNL1        0.1057
     11 C         144.3768  142.4814  159.8882 C.ar    1  UNL1        0.0184
     12 C         143.3311  142.7784  160.9218 C.ar    1  UNL1        0.0029
     13 C         141.8956  142.9302  160.5144 C.ar    1  UNL1        0.0193
     14 C         141.5057  142.7850  159.0733 C.ar    1  UNL1        0.0029
     15 C         142.5513  142.4879  158.0397 C.ar    1  UNL1        0.0184
     16 S         145.0325  142.0390  157.4135 S.O2    1  UNL1        0.0087
     17 O         144.0325  141.2400  156.6315 O.2     1  UNL1       -0.1686
     18 O         146.0325  142.8380  158.1955 O.2     1  UNL1       -0.1686
     19 C         147.3968  142.4556  156.4203 C.3     1  UNL1        0.0276
     20 C         146.0781  141.7419  156.3799 C.3     1  UNL1        0.1560
     21 C         139.9313  142.1962  165.2686 C.ar    1  UNL1        0.0395
     22 C         140.6819  142.8473  166.3923 C.ar    1  UNL1        0.0046
     23 C         140.7455  142.1832  167.7358 C.ar    1  UNL1        0.0232
     24 C         140.0583  140.8681  167.9556 C.ar    1  UNL1        0.1526
     25 N         139.3077  140.2170  166.8320 N.ar    1  UNL1       -0.2398
     26 C         139.2442  140.8811  165.4884 C.ar    1  UNL1        0.1003
     27 C         140.1219  140.2040  169.2991 C.3     1  UNL1        0.4348
     28 F         140.1854  139.5400  170.6426 F       1  UNL1       -0.1644
     29 F         141.5004  139.7025  168.9860 F       1  UNL1       -0.1644
     30 F         138.7433  140.7055  169.6122 F       1  UNL1       -0.1644
@<TRIPOS>BOND
     1    19    20    1
     2    20    16    1
     3    16    17    2
     4    16    18    2
     5    16    10    1
     6    10    11   ar
     7    11    12   ar
     8    12    13   ar
     9    13     1    1
    10     1     2   ar
    11     2     3   ar
    12     3     4   ar
    13     4     5    1
    14     4     6   ar
    15     6    21    1
    16    21    22   ar
    17    22    23   ar
    18    23    24   ar
    19    24    27    1
    20    27    28    1
    21    27    29    1
    22    27    30    1
    23    24    25   ar
    24    25    26   ar
    25     6     7   ar
    26    13    14   ar
    27    14    15   ar
    28    15    10   ar
    29     7     1   ar
    30    26    21   ar
    31     5     8    1
    32     5     9    1
@<TRIPOS>MOLECULE
*****
 30 32 0 0 0
SMALL
GASTEIGER

@<TRIPOS>ATOM
      1 C         143.2686  139.8673  163.0978 C.ar    1  UNL1        0.1005
      2 C         143.9038  138.6543  162.4856 C.ar    1  UNL1        0.1193
      3 N         144.0698  138.5649  160.9975 N.ar    1  UNL1       -0.2265
      4 C         143.6006  139.6886  160.1216 C.ar    1  UNL1        0.1433
      5 N         143.7666  139.5992  158.6335 N.pl3   1  UNL1       -0.3414
      6 C         142.9653  140.9016  160.7339 C.ar    1  UNL1        0.1138
      7 N         142.7993  140.9910  162.2220 N.ar    1  UNL1       -0.2409
      8 H         144.1835  138.8030  158.2317 H       1  UNL1        0.1438
      9 H         143.4586  140.3367  158.0587 H       1  UNL1        0.1438
     10 C         142.7706  140.1354  167.5622 C.ar    1  UNL1        0.1057
     11 C         143.0143  138.8052  166.9132 C.ar    1  UNL1        0.0184
     12 C         143.1803  138.7159  165.4251 C.ar    1  UNL1        0.0029
     13 C         143.1026  139.9567  164.5859 C.ar    1  UNL1        0.0193
     14 C         142.8588  141.2869  165.2349 C.ar    1  UNL1        0.0029
     15 C         142.6928  141.3762  166.7230 C.ar    1  UNL1        0.0184
     16 S         142.6046  140.2248  169.0503 S.O2    1  UNL1        0.0087
     17 O         142.9773  138.7775  169.1788 O.2     1  UNL1       -0.1686
     18 O         142.2318  141.6720  168.9218 O.2     1  UNL1       -0.1686
     19 C         141.2095  140.9482  171.1192 C.3     1  UNL1        0.0276
     20 C         142.4386  140.3142  170.5384 C.3     1  UNL1        0.1560
     21 C         142.4961  142.0254  159.8581 C.ar    1  UNL1        0.0395
     22 C         141.0689  142.0725  159.3988 C.ar    1  UNL1        0.0046
     23 C         140.5996  143.1962  158.5230 C.ar    1  UNL1        0.0232
     24 C         141.5575  144.2728  158.1064 C.ar    1  UNL1        0.1526
     25 N         142.9846  144.2256  158.5657 N.ar    1  UNL1       -0.2398
     26 C         143.4539  143.1019  159.4415 C.ar    1  UNL1        0.1003
     27 C         141.0882  145.3965  157.2307 C.3     1  UNL1        0.4348
     28 F         140.6188  146.5201  156.3549 F       1  UNL1       -0.1644
     29 F         142.4555  146.0107  157.2861 F       1  UNL1       -0.1644
     30 F         139.7208  144.7822  157.1753 F       1  UNL1       -0.1644
@<TRIPOS>BOND
     1    19    20    1
     2    20    16    1
     3    16    17    2
     4    16    18    2
     5    16    10    1
     6    10    11   ar
     7    11    12   ar
     8    12    13   ar
     9    13     1    1
    10     1     2   ar
    11     2     3   ar
    12     3     4   ar
    13     4     5    1
    14     4     6   ar
    15     6    21    1
    16    21    22   ar
    17    22    23   ar
    18    23    24   ar
    19    24    27    1
    20    27    28    1
    21    27    29    1
    22    27    30    1
    23    24    25   ar
    24    25    26   ar
    25     6     7   ar
    26    13    14   ar
    27    14    15   ar
    28    15    10   ar
    29     7     1   ar
    30    26    21   ar
    31     5     8    1
    32     5     9    1
@<TRIPOS>MOLECULE
*****
 30 32 0 0 0
SMALL
GASTEIGER

@<TRIPOS>ATOM
      1 C         143.1549  141.7589  161.3461 C.ar    1  UNL1        0.1005
      2 C         144.0997  142.8788  161.0252 C.ar    1  UNL1        0.1193
      3 N         144.3908  143.9322  162.0527 N.ar    1  UNL1       -0.2265
      4 C         143.7372  143.8655  163.4011 C.ar    1  UNL1        0.1433
      5 N         144.0284  144.9188  164.4286 N.pl3   1  UNL1       -0.3414
      6 C         142.7924  142.7456  163.7220 C.ar    1  UNL1        0.1138
      7 N         142.5013  141.6923  162.6945 N.ar    1  UNL1       -0.2409
      8 H         144.6485  145.6539  164.2179 H       1  UNL1        0.1438
      9 H         143.5994  144.8751  165.3136 H       1  UNL1        0.1438
     10 C         142.2814  138.5990  158.2636 C.ar    1  UNL1        0.1057
     11 C         143.2635  139.6914  157.9603 C.ar    1  UNL1        0.0184
     12 C         143.5547  140.7447  158.9878 C.ar    1  UNL1        0.0029
     13 C         142.8637  140.7056  160.3186 C.ar    1  UNL1        0.0193
     14 C         141.8816  139.6132  160.6218 C.ar    1  UNL1        0.0029
     15 C         141.5904  138.5599  159.5943 C.ar    1  UNL1        0.0184
     16 S         141.9902  137.5457  157.2361 S.O2    1  UNL1        0.0087
     17 O         140.5245  137.6610  157.5332 O.2     1  UNL1       -0.1686
     18 O         143.4559  137.4304  156.9389 O.2     1  UNL1       -0.1686
     19 C         142.3844  135.1603  156.2850 C.3     1  UNL1        0.0276
     20 C         141.6990  136.4923  156.2086 C.3     1  UNL1        0.1560
     21 C         142.1388  142.6789  165.0705 C.ar    1  UNL1        0.0395
     22 C         140.7423  143.1952  165.2534 C.ar    1  UNL1        0.0046
     23 C         140.0887  143.1285  166.6018 C.ar    1  UNL1        0.0232
     24 C         140.8314  142.5455  167.7674 C.ar    1  UNL1        0.1526
     25 N         142.2278  142.0292  167.5845 N.ar    1  UNL1       -0.2398
     26 C         142.8815  142.0959  166.2360 C.ar    1  UNL1        0.1003
     27 C         140.1777  142.4789  169.1158 C.3     1  UNL1        0.4348
     28 F         139.5240  142.4122  170.4642 F       1  UNL1       -0.1644
     29 F         140.0991  140.9851  169.0038 F       1  UNL1       -0.1644
     30 F         140.2563  143.9726  169.2277 F       1  UNL1       -0.1644
@<TRIPOS>BOND
     1    19    20    1
     2    20    16    1
     3    16    17    2
     4    16    18    2
     5    16    10    1
     6    10    11   ar
     7    11    12   ar
     8    12    13   ar
     9    13     1    1
    10     1     2   ar
    11     2     3   ar
    12     3     4   ar
    13     4     5    1
    14     4     6   ar
    15     6    21    1
    16    21    22   ar
    17    22    23   ar
    18    23    24   ar
    19    24    27    1
    20    27    28    1
    21    27    29    1
    22    27    30    1
    23    24    25   ar
    24    25    26   ar
    25     6     7   ar
    26    13    14   ar
    27    14    15   ar
    28    15    10   ar
    29     7     1   ar
    30    26    21   ar
    31     5     8    1
    32     5     9    1
@<TRIPOS>MOLECULE
*****
 30 32 0 0 0
SMALL
GASTEIGER

@<TRIPOS>ATOM
      1 C         139.7322  139.1006  163.3322 C.ar    1  UNL1        0.1005
      2 C         138.5356  138.3761  162.7908 C.ar    1  UNL1        0.1193
      3 N         138.4184  138.1173  161.3179 N.ar    1  UNL1       -0.2265
      4 C         139.4979  138.5830  160.3864 C.ar    1  UNL1        0.1433
      5 N         139.3808  138.3243  158.9136 N.pl3   1  UNL1       -0.3414
      6 C         140.6946  139.3075  160.9278 C.ar    1  UNL1        0.1138
      7 N         140.8117  139.5663  162.4007 N.ar    1  UNL1       -0.2409
      8 H         138.5954  137.8488  158.5583 H       1  UNL1        0.1438
      9 H         140.0893  138.6300  158.3022 H       1  UNL1        0.1438
     10 C         140.0836  139.8769  167.7508 C.ar    1  UNL1        0.1057
     11 C         138.7623  139.4810  167.1616 C.ar    1  UNL1        0.0184
     12 C         138.6451  139.2222  165.6887 C.ar    1  UNL1        0.0029
     13 C         139.8494  139.3593  164.8050 C.ar    1  UNL1        0.0193
     14 C         141.1707  139.7552  165.3942 C.ar    1  UNL1        0.0029
     15 C         141.2879  140.0140  166.8671 C.ar    1  UNL1        0.0184
     16 S         140.2008  140.1356  169.2236 S.O2    1  UNL1        0.0087
     17 O         138.7474  139.8076  169.3968 O.2     1  UNL1       -0.1686
     18 O         141.6542  140.4637  169.0504 O.2     1  UNL1       -0.1686
     19 C         140.8895  141.6915  171.1869 C.3     1  UNL1        0.0276
     20 C         140.3179  140.3944  170.6965 C.3     1  UNL1        0.1560
     21 C         141.7742  139.7733  159.9963 C.ar    1  UNL1        0.0395
     22 C         141.6606  141.1101  159.3254 C.ar    1  UNL1        0.0046
     23 C         142.7401  141.5759  158.3939 C.ar    1  UNL1        0.0232
     24 C         143.9332  140.7049  158.1333 C.ar    1  UNL1        0.1526
     25 N         144.0468  139.3681  158.8043 N.ar    1  UNL1       -0.2398
     26 C         142.9672  138.9023  159.7358 C.ar    1  UNL1        0.1003
     27 C         145.0127  141.1707  157.2019 C.3     1  UNL1        0.4348
     28 F         146.0922  141.6364  156.2704 F       1  UNL1       -0.1644
     29 F         144.6787  140.0548  156.2568 F       1  UNL1       -0.1644
     30 F         145.3468  142.2865  158.1470 F       1  UNL1       -0.1644
@<TRIPOS>BOND
     1    19    20    1
     2    20    16    1
     3    16    17    2
     4    16    18    2
     5    16    10    1
     6    10    11   ar
     7    11    12   ar
     8    12    13   ar
     9    13     1    1
    10     1     2   ar
    11     2     3   ar
    12     3     4   ar
    13     4     5    1
    14     4     6   ar
    15     6    21    1
    16    21    22   ar
    17    22    23   ar
    18    23    24   ar
    19    24    27    1
    20    27    28    1
    21    27    29    1
    22    27    30    1
    23    24    25   ar
    24    25    26   ar
    25     6     7   ar
    26    13    14   ar
    27    14    15   ar
    28    15    10   ar
    29     7     1   ar
    30    26    21   ar
    31     5     8    1
    32     5     9    1
@<TRIPOS>MOLECULE
*****
 30 32 0 0 0
SMALL
GASTEIGER

@<TRIPOS>ATOM
      1 C         139.4665  142.1914  163.2470 C.ar    1  UNL1        0.1005
      2 C         138.1611  142.7257  162.7369 C.ar    1  UNL1        0.1193
      3 N         138.0261  143.1276  161.2980 N.ar    1  UNL1       -0.2265
      4 C         139.1965  142.9953  160.3694 C.ar    1  UNL1        0.1433
      5 N         139.0615  143.3972  158.9305 N.pl3   1  UNL1       -0.3414
      6 C         140.5020  142.4610  160.8795 C.ar    1  UNL1        0.1138
      7 N         140.6370  142.0591  162.3184 N.ar    1  UNL1       -0.2409
      8 H         138.2047  143.7478  158.5957 H       1  UNL1        0.1438
      9 H         139.8298  143.3103  158.3210 H       1  UNL1        0.1438
     10 C         139.8715  140.9857  167.5635 C.ar    1  UNL1        0.1057
     11 C         139.2386  140.0476  166.5790 C.ar    1  UNL1        0.0184
     12 C         139.1036  140.4495  165.1401 C.ar    1  UNL1        0.0029
     13 C         139.6015  141.7895  164.6859 C.ar    1  UNL1        0.0193
     14 C         140.2344  142.7276  165.6704 C.ar    1  UNL1        0.0029
     15 C         140.3694  142.3257  167.1092 C.ar    1  UNL1        0.0184
     16 S         140.0065  140.5838  169.0024 S.O2    1  UNL1        0.0087
     17 O         138.8890  139.5978  168.8318 O.2     1  UNL1       -0.1686
     18 O         141.1240  141.5697  169.1729 O.2     1  UNL1       -0.1686
     19 C         141.0761  140.9305  171.3445 C.3     1  UNL1        0.0276
     20 C         140.1415  140.1819  170.4412 C.3     1  UNL1        0.1560
     21 C         141.6725  142.3287  159.9508 C.ar    1  UNL1        0.0395
     22 C         141.8975  141.0463  159.2058 C.ar    1  UNL1        0.0046
     23 C         143.0680  140.9139  158.2772 C.ar    1  UNL1        0.0232
     24 C         144.0136  142.0639  158.0935 C.ar    1  UNL1        0.1526
     25 N         143.7886  143.3462  158.8386 N.ar    1  UNL1       -0.2398
     26 C         142.6180  143.4786  159.7672 C.ar    1  UNL1        0.1003
     27 C         145.1840  141.9315  157.1649 C.3     1  UNL1        0.4348
     28 F         146.3545  141.7991  156.2363 F       1  UNL1       -0.1644
     29 F         145.9784  142.8612  158.0335 F       1  UNL1       -0.1644
     30 F         144.3897  141.0018  156.2962 F       1  UNL1       -0.1644
@<TRIPOS>BOND
     1    19    20    1
     2    20    16    1
     3    16    17    2
     4    16    18    2
     5    16    10    1
     6    10    11   ar
     7    11    12   ar
     8    12    13   ar
     9    13     1    1
    10     1     2   ar
    11     2     3   ar
    12     3     4   ar
    13     4     5    1
    14     4     6   ar
    15     6    21    1
    16    21    22   ar
    17    22    23   ar
    18    23    24   ar
    19    24    27    1
    20    27    28    1
    21    27    29    1
    22    27    30    1
    23    24    25   ar
    24    25    26   ar
    25     6     7   ar
    26    13    14   ar
    27    14    15   ar
    28    15    10   ar
    29     7     1   ar
    30    26    21   ar
    31     5     8    1
    32     5     9    1
