@<TRIPOS>MOLECULE
*****
 26 28 0 0 0
SMALL
GASTEIGER

@<TRIPOS>ATOM
      1 C         143.6733  144.8256  163.2769 C.3     1  UNL1        0.0532
      2 C         142.5174  144.2555  164.0443 C.ar    1  UNL1        0.0761
      3 N         142.7538  143.1948  165.0782 N.ar    1  UNL1       -0.2298
      4 C         141.5979  142.6247  165.8457 C.ar    1  UNL1        0.1651
      5 N         140.2057  143.1153  165.5793 N.ar    1  UNL1       -0.1918
      6 C         139.9694  144.1760  164.5453 C.ar    1  UNL1        0.2382
      7 C         141.1252  144.7461  163.7779 C.ar    1  UNL1        0.1242
      8 CL        140.8888  145.8069  162.7439 Cl      1  UNL1       -0.0761
      9 C         141.8344  141.5640  166.8797 C.ar    1  UNL1        0.0383
     10 C         141.2847  141.7315  168.2652 C.ar    1  UNL1        0.0055
     11 C         141.5210  140.6708  169.2992 C.ar    1  UNL1        0.0321
     12 C         142.3072  139.4426  168.9476 C.ar    1  UNL1        0.1674
     13 F         142.5436  138.3819  169.9815 F       1  UNL1       -0.2018
     14 C         142.8569  139.2751  167.5620 C.ar    1  UNL1        0.1675
     15 F         143.6430  138.0470  167.2104 F       1  UNL1       -0.2018
     16 C         142.6205  140.3358  166.5280 C.ar    1  UNL1        0.0350
     17 O         138.5771  144.6666  164.2788 O.3     1  UNL1       -0.4596
     18 C         137.7216  143.9773  163.2576 C.3     1  UNL1        0.2086
     19 C         138.1369  142.6450  162.7074 C.3     1  UNL1        0.0647
     20 C         137.3323  141.4192  163.0234 C.3     1  UNL1        0.0759
     21 N         137.9849  140.2453  163.6912 N.3     1  UNL1       -0.2726
     22 C         138.3547  139.0347  162.8863 C.3     1  UNL1        0.0721
     23 C         139.0073  137.8608  163.5540 C.3     1  UNL1        0.0174
     24 C         139.2902  137.8974  165.0266 C.3     1  UNL1        0.0029
     25 C         138.9205  139.1079  165.8315 C.3     1  UNL1        0.0174
     26 C         138.2678  140.2819  165.1638 C.3     1  UNL1        0.0721
@<TRIPOS>BOND
     1     1     2    1
     2     2     3   ar
     3     3     4   ar
     4     4     9    1
     5     9    10   ar
     6    10    11   ar
     7    11    12   ar
     8    12    13    1
     9    12    14   ar
    10    14    15    1
    11    14    16   ar
    12     4     5   ar
    13     5     6   ar
    14     6    17    1
    15    17    18    1
    16    18    19    1
    17    19    20    1
    18    20    21    1
    19    21    22    1
    20    22    23    1
    21    23    24    1
    22    24    25    1
    23    25    26    1
    24     6     7   ar
    25     7     8    1
    26     7     2   ar
    27    16     9   ar
    28    26    21    1
@<TRIPOS>MOLECULE
*****
 26 28 0 0 0
SMALL
GASTEIGER

@<TRIPOS>ATOM
      1 C         139.0698  144.9371  164.7960 C.3     1  UNL1        0.0532
      2 C         139.1829  143.4836  165.1491 C.ar    1  UNL1        0.0761
      3 N         140.0525  143.0553  166.2937 N.ar    1  UNL1       -0.2298
      4 C         140.1656  141.6018  166.6468 C.ar    1  UNL1        0.1651
      5 N         139.4090  140.5767  165.8552 N.ar    1  UNL1       -0.1918
      6 C         138.5393  141.0050  164.7106 C.ar    1  UNL1        0.2382
      7 C         138.4263  142.4585  164.3575 C.ar    1  UNL1        0.1242
      8 CL        137.5566  142.8868  163.2129 Cl      1  UNL1       -0.0761
      9 C         141.0353  141.1735  167.7915 C.ar    1  UNL1        0.0383
     10 C         140.6761  139.9568  168.5918 C.ar    1  UNL1        0.0055
     11 C         141.5458  139.5284  169.7365 C.ar    1  UNL1        0.0321
     12 C         142.7746  140.3169  170.0808 C.ar    1  UNL1        0.1674
     13 F         143.6442  139.8885  171.2255 F       1  UNL1       -0.2018
     14 C         143.1337  141.5336  169.2805 C.ar    1  UNL1        0.1675
     15 F         144.3624  142.3220  169.6247 F       1  UNL1       -0.2018
     16 C         142.2640  141.9619  168.1358 C.ar    1  UNL1        0.0350
     17 O         137.7827  139.9799  163.9190 O.3     1  UNL1       -0.4596
     18 C         138.5064  139.1055  162.9384 C.3     1  UNL1        0.2086
     19 C         139.1870  137.8543  163.4092 C.3     1  UNL1        0.0647
     20 C         140.5655  137.5212  162.9207 C.3     1  UNL1        0.0759
     21 N         141.7664  138.0688  163.6334 N.3     1  UNL1       -0.2726
     22 C         142.9318  138.5915  162.8468 C.3     1  UNL1        0.0721
     23 C         144.1326  139.1391  163.5595 C.3     1  UNL1        0.0174
     24 C         144.1682  139.1640  165.0589 C.3     1  UNL1        0.0029
     25 C         143.0029  138.6413  165.8455 C.3     1  UNL1        0.0174
     26 C         141.8020  138.0937  165.1328 C.3     1  UNL1        0.0721
@<TRIPOS>BOND
     1     1     2    1
     2     2     3   ar
     3     3     4   ar
     4     4     9    1
     5     9    10   ar
     6    10    11   ar
     7    11    12   ar
     8    12    13    1
     9    12    14   ar
    10    14    15    1
    11    14    16   ar
    12     4     5   ar
    13     5     6   ar
    14     6    17    1
    15    17    18    1
    16    18    19    1
    17    19    20    1
    18    20    21    1
    19    21    22    1
    20    22    23    1
    21    23    24    1
    22    24    25    1
    23    25    26    1
    24     6     7   ar
    25     7     8    1
    26     7     2   ar
    27    16     9   ar
    28    26    21    1
@<TRIPOS>MOLECULE
*****
 26 28 0 0 0
SMALL
GASTEIGER

@<TRIPOS>ATOM
      1 C         144.0222  143.5003  164.0017 C.3     1  UNL1        0.0532
      2 C         142.6330  143.4879  164.5672 C.ar    1  UNL1        0.0761
      3 N         142.3386  142.7116  165.8165 N.ar    1  UNL1       -0.2298
      4 C         140.9493  142.6992  166.3820 C.ar    1  UNL1        0.1651
      5 N         139.8544  143.4632  165.6982 N.ar    1  UNL1       -0.1918
      6 C         140.1488  144.2395  164.4490 C.ar    1  UNL1        0.2382
      7 C         141.5381  144.2519  163.8835 C.ar    1  UNL1        0.1242
      8 CL        141.8324  145.0283  162.6342 Cl      1  UNL1       -0.0761
      9 C         140.6550  141.9228  167.6313 C.ar    1  UNL1        0.0383
     10 C         139.7534  140.7254  167.5752 C.ar    1  UNL1        0.0055
     11 C         139.4591  139.9490  168.8244 C.ar    1  UNL1        0.0321
     12 C         140.0663  140.3701  170.1298 C.ar    1  UNL1        0.1674
     13 F         139.7720  139.5937  171.3790 F       1  UNL1       -0.2018
     14 C         140.9679  141.5676  170.1859 C.ar    1  UNL1        0.1675
     15 F         141.5752  141.9887  171.4912 F       1  UNL1       -0.2018
     16 C         141.2622  142.3440  168.9366 C.ar    1  UNL1        0.0350
     17 O         139.0539  145.0035  163.7652 O.3     1  UNL1       -0.4596
     18 C         137.8913  144.2713  163.1634 C.3     1  UNL1        0.2086
     19 C         138.0863  142.9015  162.5839 C.3     1  UNL1        0.0647
     20 C         137.2339  141.7601  163.0537 C.3     1  UNL1        0.0759
     21 N         137.8161  140.3815  163.1549 N.3     1  UNL1       -0.2726
     22 C         138.3228  139.8762  164.4733 C.3     1  UNL1        0.0721
     23 C         138.9050  138.4976  164.5746 C.3     1  UNL1        0.0174
     24 C         138.9805  137.6241  163.3575 C.3     1  UNL1        0.0029
     25 C         138.4739  138.1293  162.0391 C.3     1  UNL1        0.0174
     26 C         137.8916  139.5080  161.9378 C.3     1  UNL1        0.0721
@<TRIPOS>BOND
     1     1     2    1
     2     2     3   ar
     3     3     4   ar
     4     4     9    1
     5     9    10   ar
     6    10    11   ar
     7    11    12   ar
     8    12    13    1
     9    12    14   ar
    10    14    15    1
    11    14    16   ar
    12     4     5   ar
    13     5     6   ar
    14     6    17    1
    15    17    18    1
    16    18    19    1
    17    19    20    1
    18    20    21    1
    19    21    22    1
    20    22    23    1
    21    23    24    1
    22    24    25    1
    23    25    26    1
    24     6     7   ar
    25     7     8    1
    26     7     2   ar
    27    16     9   ar
    28    26    21    1
@<TRIPOS>MOLECULE
*****
 26 28 0 0 0
SMALL
GASTEIGER

@<TRIPOS>ATOM
      1 C         140.9412  141.5719  171.1533 C.3     1  UNL1        0.0532
      2 C         141.1178  141.2269  169.7042 C.ar    1  UNL1        0.0761
      3 N         140.3132  141.9418  168.6596 N.ar    1  UNL1       -0.2298
      4 C         140.4898  141.5969  167.2105 C.ar    1  UNL1        0.1651
      5 N         141.4711  140.5369  166.8061 N.ar    1  UNL1       -0.1918
      6 C         142.2757  139.8220  167.8507 C.ar    1  UNL1        0.2382
      7 C         142.0991  140.1670  169.2998 C.ar    1  UNL1        0.1242
      8 CL        142.9038  139.4520  170.3445 Cl      1  UNL1       -0.0761
      9 C         139.6851  142.3119  166.1658 C.ar    1  UNL1        0.0383
     10 C         139.7208  143.8093  166.0863 C.ar    1  UNL1        0.0055
     11 C         138.9162  144.5243  165.0417 C.ar    1  UNL1        0.0321
     12 C         138.0757  143.7419  164.0765 C.ar    1  UNL1        0.1674
     13 F         137.2711  144.4569  163.0319 F       1  UNL1       -0.2018
     14 C         138.0400  142.2444  164.1561 C.ar    1  UNL1        0.1675
     15 F         137.1995  141.4620  163.1910 F       1  UNL1       -0.2018
     16 C         138.8447  141.5294  165.2007 C.ar    1  UNL1        0.0350
     17 O         143.2571  138.7620  167.4463 O.3     1  UNL1       -0.4596
     18 C         143.3755  138.3597  166.0062 C.3     1  UNL1        0.2086
     19 C         144.4265  138.9840  165.1370 C.3     1  UNL1        0.0647
     20 C         144.0328  139.6882  163.8724 C.3     1  UNL1        0.0759
     21 N         143.5892  141.1204  163.9185 N.3     1  UNL1       -0.2726
     22 C         144.4022  142.1336  164.6684 C.3     1  UNL1        0.0721
     23 C         143.9587  143.5658  164.7145 C.3     1  UNL1        0.0174
     24 C         142.7020  143.9847  164.0106 C.3     1  UNL1        0.0029
     25 C         141.8890  142.9716  163.2607 C.3     1  UNL1        0.0174
     26 C         142.3326  141.5393  163.2146 C.3     1  UNL1        0.0721
@<TRIPOS>BOND
     1     1     2    1
     2     2     3   ar
     3     3     4   ar
     4     4     9    1
     5     9    10   ar
     6    10    11   ar
     7    11    12   ar
     8    12    13    1
     9    12    14   ar
    10    14    15    1
    11    14    16   ar
    12     4     5   ar
    13     5     6   ar
    14     6    17    1
    15    17    18    1
    16    18    19    1
    17    19    20    1
    18    20    21    1
    19    21    22    1
    20    22    23    1
    21    23    24    1
    22    24    25    1
    23    25    26    1
    24     6     7   ar
    25     7     8    1
    26     7     2   ar
    27    16     9   ar
    28    26    21    1
@<TRIPOS>MOLECULE
*****
 26 28 0 0 0
SMALL
GASTEIGER

@<TRIPOS>ATOM
      1 C         142.5455  145.2216  163.5106 C.3     1  UNL1        0.0532
      2 C         142.6226  143.7882  163.9458 C.ar    1  UNL1        0.0761
      3 N         141.7929  143.3091  165.0999 N.ar    1  UNL1       -0.2298
      4 C         141.8700  141.8757  165.5350 C.ar    1  UNL1        0.1651
      5 N         142.7768  140.9213  164.8160 N.ar    1  UNL1       -0.1918
      6 C         143.6064  141.4004  163.6619 C.ar    1  UNL1        0.2382
      7 C         143.5294  142.8339  163.2268 C.ar    1  UNL1        0.1242
      8 CL        144.3591  143.3129  162.0726 Cl      1  UNL1       -0.0761
      9 C         141.0403  141.3966  166.6893 C.ar    1  UNL1        0.0383
     10 C         141.2301  141.9983  168.0501 C.ar    1  UNL1        0.0055
     11 C         140.4004  141.5192  169.2043 C.ar    1  UNL1        0.0321
     12 C         139.3809  140.4385  168.9976 C.ar    1  UNL1        0.1674
     13 F         138.5512  139.9595  170.1518 F       1  UNL1       -0.2018
     14 C         139.1911  139.8369  167.6367 C.ar    1  UNL1        0.1675
     15 F         138.1716  138.7562  167.4300 F       1  UNL1       -0.2018
     16 C         140.0208  140.3160  166.4825 C.ar    1  UNL1        0.0350
     17 O         144.5132  140.4461  162.9428 O.3     1  UNL1       -0.4596
     18 C         144.0241  139.7204  161.7246 C.3     1  UNL1        0.2086
     19 C         143.7185  138.2536  161.7975 C.3     1  UNL1        0.0647
     20 C         142.3953  137.7384  161.3143 C.3     1  UNL1        0.0759
     21 N         141.2219  137.6933  162.2476 N.3     1  UNL1       -0.2726
     22 C         139.8382  137.9442  161.7255 C.3     1  UNL1        0.0721
     23 C         138.6648  137.8991  162.6588 C.3     1  UNL1        0.0174
     24 C         138.8750  137.6033  164.1142 C.3     1  UNL1        0.0029
     25 C         140.2586  137.3524  164.6364 C.3     1  UNL1        0.0174
     26 C         141.4321  137.3974  163.7030 C.3     1  UNL1        0.0721
@<TRIPOS>BOND
     1     1     2    1
     2     2     3   ar
     3     3     4   ar
     4     4     9    1
     5     9    10   ar
     6    10    11   ar
     7    11    12   ar
     8    12    13    1
     9    12    14   ar
    10    14    15    1
    11    14    16   ar
    12     4     5   ar
    13     5     6   ar
    14     6    17    1
    15    17    18    1
    16    18    19    1
    17    19    20    1
    18    20    21    1
    19    21    22    1
    20    22    23    1
    21    23    24    1
    22    24    25    1
    23    25    26    1
    24     6     7   ar
    25     7     8    1
    26     7     2   ar
    27    16     9   ar
    28    26    21    1
@<TRIPOS>MOLECULE
*****
 26 28 0 0 0
SMALL
GASTEIGER

@<TRIPOS>ATOM
      1 C         144.3438  139.2786  163.7758 C.3     1  UNL1        0.0532
      2 C         142.9396  139.1897  164.2955 C.ar    1  UNL1        0.0761
      3 N         142.5561  139.9192  165.5488 N.ar    1  UNL1       -0.2298
      4 C         141.1519  139.8304  166.0685 C.ar    1  UNL1        0.1651
      5 N         140.1310  139.0121  165.3350 N.ar    1  UNL1       -0.1918
      6 C         140.5144  138.2826  164.0817 C.ar    1  UNL1        0.2382
      7 C         141.9187  138.3714  163.5619 C.ar    1  UNL1        0.1242
      8 CL        142.3021  137.6419  162.3086 Cl      1  UNL1       -0.0761
      9 C         140.7685  140.5599  167.3219 C.ar    1  UNL1        0.0383
     10 C         141.4330  141.8599  167.6661 C.ar    1  UNL1        0.0055
     11 C         141.0496  142.5894  168.9194 C.ar    1  UNL1        0.0321
     12 C         140.0017  142.0190  169.8286 C.ar    1  UNL1        0.1674
     13 F         139.6184  142.7485  171.0819 F       1  UNL1       -0.2018
     14 C         139.3372  140.7190  169.4844 C.ar    1  UNL1        0.1675
     15 F         138.2894  140.1485  170.3935 F       1  UNL1       -0.2018
     16 C         139.7206  139.9895  168.2310 C.ar    1  UNL1        0.0350
     17 O         139.4935  137.4642  163.3480 O.3     1  UNL1       -0.4596
     18 C         138.7215  138.0697  162.2135 C.3     1  UNL1        0.2086
     19 C         138.0499  139.3996  162.3886 C.3     1  UNL1        0.0647
     20 C         138.7582  140.6570  161.9799 C.3     1  UNL1        0.0759
     21 N         138.6118  141.9019  162.8038 N.3     1  UNL1       -0.2726
     22 C         137.8600  143.0792  162.2569 C.3     1  UNL1        0.0721
     23 C         137.7136  144.3240  163.0807 C.3     1  UNL1        0.0174
     24 C         138.3189  144.3917  164.4515 C.3     1  UNL1        0.0029
     25 C         139.0706  143.2146  164.9984 C.3     1  UNL1        0.0174
     26 C         139.2171  141.9696  164.1745 C.3     1  UNL1        0.0721
@<TRIPOS>BOND
     1     1     2    1
     2     2     3   ar
     3     3     4   ar
     4     4     9    1
     5     9    10   ar
     6    10    11   ar
     7    11    12   ar
     8    12    13    1
     9    12    14   ar
    10    14    15    1
    11    14    16   ar
    12     4     5   ar
    13     5     6   ar
    14     6    17    1
    15    17    18    1
    16    18    19    1
    17    19    20    1
    18    20    21    1
    19    21    22    1
    20    22    23    1
    21    23    24    1
    22    24    25    1
    23    25    26    1
    24     6     7   ar
    25     7     8    1
    26     7     2   ar
    27    16     9   ar
    28    26    21    1
@<TRIPOS>MOLECULE
*****
 26 28 0 0 0
SMALL
GASTEIGER

@<TRIPOS>ATOM
      1 C         139.6927  144.7545  163.3291 C.3     1  UNL1        0.0532
      2 C         140.7049  144.0259  164.1625 C.ar    1  UNL1        0.0761
      3 N         140.2730  143.2987  165.4013 N.ar    1  UNL1       -0.2298
      4 C         141.2853  142.5701  166.2347 C.ar    1  UNL1        0.1651
      5 N         142.7294  142.5687  165.8292 N.ar    1  UNL1       -0.1918
      6 C         143.1613  143.2958  164.5904 C.ar    1  UNL1        0.2382
      7 C         142.1491  144.0244  163.7571 C.ar    1  UNL1        0.1242
      8 CL        142.5810  144.7516  162.5182 Cl      1  UNL1       -0.0761
      9 C         140.8533  141.8429  167.4735 C.ar    1  UNL1        0.0383
     10 C         139.8688  140.7154  167.3765 C.ar    1  UNL1        0.0055
     11 C         139.4368  139.9882  168.6152 C.ar    1  UNL1        0.0321
     12 C         139.9894  140.3886  169.9511 C.ar    1  UNL1        0.1674
     13 F         139.5574  139.6614  171.1899 F       1  UNL1       -0.2018
     14 C         140.9739  141.5161  170.0482 C.ar    1  UNL1        0.1675
     15 F         141.5264  141.9165  171.3839 F       1  UNL1       -0.2018
     16 C         141.4058  142.2433  168.8093 C.ar    1  UNL1        0.0350
     17 O         144.6055  143.2944  164.1850 O.3     1  UNL1       -0.4596
     18 C         145.0975  142.3097  163.1660 C.3     1  UNL1        0.2086
     19 C         145.2140  140.8572  163.5220 C.3     1  UNL1        0.0647
     20 C         144.4553  139.8292  162.7361 C.3     1  UNL1        0.0759
     21 N         143.3519  139.0504  163.3887 N.3     1  UNL1       -0.2726
     22 C         143.1224  139.1691  164.8663 C.3     1  UNL1        0.0721
     23 C         142.0191  138.3903  165.5189 C.3     1  UNL1        0.0174
     24 C         141.1451  137.4926  164.6939 C.3     1  UNL1        0.0029
     25 C         141.3746  137.3739  163.2164 C.3     1  UNL1        0.0174
     26 C         142.4780  138.1527  162.5637 C.3     1  UNL1        0.0721
@<TRIPOS>BOND
     1     1     2    1
     2     2     3   ar
     3     3     4   ar
     4     4     9    1
     5     9    10   ar
     6    10    11   ar
     7    11    12   ar
     8    12    13    1
     9    12    14   ar
    10    14    15    1
    11    14    16   ar
    12     4     5   ar
    13     5     6   ar
    14     6    17    1
    15    17    18    1
    16    18    19    1
    17    19    20    1
    18    20    21    1
    19    21    22    1
    20    22    23    1
    21    23    24    1
    22    24    25    1
    23    25    26    1
    24     6     7   ar
    25     7     8    1
    26     7     2   ar
    27    16     9   ar
    28    26    21    1
@<TRIPOS>MOLECULE
*****
 26 28 0 0 0
SMALL
GASTEIGER

@<TRIPOS>ATOM
      1 C         138.9336  137.6658  163.1308 C.3     1  UNL1        0.0532
      2 C         140.1531  138.2093  163.8144 C.ar    1  UNL1        0.0761
      3 N         140.0620  138.7080  165.2261 N.ar    1  UNL1       -0.2298
      4 C         141.2816  139.2515  165.9097 C.ar    1  UNL1        0.1651
      5 N         142.5922  139.2963  165.1816 N.ar    1  UNL1       -0.1918
      6 C         142.6833  138.7975  163.7699 C.ar    1  UNL1        0.2382
      7 C         141.4638  138.2540  163.0863 C.ar    1  UNL1        0.1242
      8 CL        141.5549  137.7553  161.6746 Cl      1  UNL1       -0.0761
      9 C         141.1904  139.7502  167.3215 C.ar    1  UNL1        0.0383
     10 C         139.8483  139.9848  167.9488 C.ar    1  UNL1        0.0055
     11 C         139.7571  140.4836  169.3605 C.ar    1  UNL1        0.0321
     12 C         141.0081  140.7477  170.1449 C.ar    1  UNL1        0.1674
     13 F         140.9169  141.2464  171.5566 F       1  UNL1       -0.2018
     14 C         142.3503  140.5131  169.5176 C.ar    1  UNL1        0.1675
     15 F         143.6012  140.7772  170.3019 F       1  UNL1       -0.2018
     16 C         142.4414  140.0144  168.1058 C.ar    1  UNL1        0.0350
     17 O         143.9940  138.8423  163.0418 O.3     1  UNL1       -0.4596
     18 C         144.4018  140.0848  162.3070 C.3     1  UNL1        0.2086
     19 C         144.2084  141.4296  162.9428 C.3     1  UNL1        0.0647
     20 C         143.0274  142.2743  162.5665 C.3     1  UNL1        0.0759
     21 N         141.8457  142.3635  163.4861 N.3     1  UNL1       -0.2726
     22 C         140.5021  141.8768  163.0302 C.3     1  UNL1        0.0721
     23 C         139.3204  141.9660  163.9498 C.3     1  UNL1        0.0174
     24 C         139.4823  142.5419  165.3253 C.3     1  UNL1        0.0029
     25 C         140.8259  143.0286  165.7813 C.3     1  UNL1        0.0174
     26 C         142.0076  142.9394  164.8617 C.3     1  UNL1        0.0721
@<TRIPOS>BOND
     1     1     2    1
     2     2     3   ar
     3     3     4   ar
     4     4     9    1
     5     9    10   ar
     6    10    11   ar
     7    11    12   ar
     8    12    13    1
     9    12    14   ar
    10    14    15    1
    11    14    16   ar
    12     4     5   ar
    13     5     6   ar
    14     6    17    1
    15    17    18    1
    16    18    19    1
    17    19    20    1
    18    20    21    1
    19    21    22    1
    20    22    23    1
    21    23    24    1
    22    24    25    1
    23    25    26    1
    24     6     7   ar
    25     7     8    1
    26     7     2   ar
    27    16     9   ar
    28    26    21    1
@<TRIPOS>MOLECULE
*****
 26 28 0 0 0
SMALL
GASTEIGER

@<TRIPOS>ATOM
      1 C         143.6604  142.1202  162.3767 C.3     1  UNL1        0.0532
      2 C         142.5569  142.5603  163.2924 C.ar    1  UNL1        0.0761
      3 N         142.6684  142.3233  164.7693 N.ar    1  UNL1       -0.2298
      4 C         141.5649  142.7635  165.6850 C.ar    1  UNL1        0.1651
      5 N         140.3498  143.4405  165.1238 N.ar    1  UNL1       -0.1918
      6 C         140.2382  143.6775  163.6469 C.ar    1  UNL1        0.2382
      7 C         141.3417  143.2374  162.7312 C.ar    1  UNL1        0.1242
      8 CL        141.2301  143.4744  161.2542 Cl      1  UNL1       -0.0761
      9 C         141.6765  142.5265  167.1620 C.ar    1  UNL1        0.0383
     10 C         142.9973  142.1463  167.7629 C.ar    1  UNL1        0.0055
     11 C         143.1090  141.9093  169.2398 C.ar    1  UNL1        0.0321
     12 C         141.8998  142.0525  170.1159 C.ar    1  UNL1        0.1674
     13 F         142.0115  141.8155  171.5928 F       1  UNL1       -0.2018
     14 C         140.5791  142.4326  169.5151 C.ar    1  UNL1        0.1675
     15 F         139.3700  142.5758  170.3911 F       1  UNL1       -0.2018
     16 C         140.4674  142.6696  168.0381 C.ar    1  UNL1        0.0350
     17 O         139.0231  144.3546  163.0856 O.3     1  UNL1       -0.4596
     18 C         137.7702  143.5664  162.8427 C.3     1  UNL1        0.2086
     19 C         137.8363  142.2607  162.1072 C.3     1  UNL1        0.0647
     20 C         137.5397  140.9786  162.8270 C.3     1  UNL1        0.0759
     21 N         138.5571  140.3886  163.7580 N.3     1  UNL1       -0.2726
     22 C         139.8475  139.8499  163.2150 C.3     1  UNL1        0.0721
     23 C         140.8648  139.2599  164.1460 C.3     1  UNL1        0.0174
     24 C         140.5919  139.2086  165.6200 C.3     1  UNL1        0.0029
     25 C         139.3016  139.7472  166.1631 C.3     1  UNL1        0.0174
     26 C         138.2842  140.3373  165.2321 C.3     1  UNL1        0.0721
@<TRIPOS>BOND
     1     1     2    1
     2     2     3   ar
     3     3     4   ar
     4     4     9    1
     5     9    10   ar
     6    10    11   ar
     7    11    12   ar
     8    12    13    1
     9    12    14   ar
    10    14    15    1
    11    14    16   ar
    12     4     5   ar
    13     5     6   ar
    14     6    17    1
    15    17    18    1
    16    18    19    1
    17    19    20    1
    18    20    21    1
    19    21    22    1
    20    22    23    1
    21    23    24    1
    22    24    25    1
    23    25    26    1
    24     6     7   ar
    25     7     8    1
    26     7     2   ar
    27    16     9   ar
    28    26    21    1
