@<TRIPOS>MOLECULE
*****
 31 34 0 0 0
SMALL
GASTEIGER

@<TRIPOS>ATOM
      1 N         138.7439  138.7478  162.8456 N.3     1  UNL1       -0.2718
      2 C         140.0105  137.9501  162.7460 C.3     1  UNL1        0.0768
      3 C         141.1604  137.8972  163.7078 C.3     1  UNL1        0.0433
      4 C         141.3277  138.6287  165.0065 C.ar    1  UNL1       -0.0247
      5 C         142.6338  138.2898  165.6620 C.ar    1  UNL1       -0.0045
      6 C         142.9986  138.9162  166.9752 C.ar    1  UNL1       -0.0003
      7 C         142.0575  139.8814  167.6331 C.ar    1  UNL1       -0.0002
      8 C         140.7515  140.2202  166.9776 C.ar    1  UNL1       -0.0045
      9 C         140.3867  139.5939  165.6644 C.ar    1  UNL1       -0.0247
     10 C         139.0457  140.0659  165.1859 C.3     1  UNL1        0.0433
     11 C         138.3146  139.6893  163.9314 C.3     1  UNL1        0.0768
     12 C         142.4224  140.5077  168.9463 C.2     1  UNL1        0.0047
     13 C         141.9260  141.8819  169.2854 C.2     1  UNL1        0.0598
     14 C         142.2908  142.5082  170.5987 C.2     1  UNL1        0.2679
     15 O         141.5973  142.0731  171.8556 O.2     1  UNL1       -0.2681
     16 N         143.3492  143.5697  170.6551 N.am    1  UNL1       -0.1934
     17 O         143.7141  144.1960  171.9683 O.3     1  UNL1       -0.2949
     18 H         143.8044  143.8553  169.8301 H       1  UNL1        0.1825
     19 H         143.1761  143.8042  172.6739 H       1  UNL1        0.2414
     20 C         137.7793  138.5818  161.7089 C.3     1  UNL1        0.0769
     21 C         137.3576  139.7744  160.9029 C.3     1  UNL1        0.0446
     22 C         139.6074  139.6598  158.5418 C.3     1  UNL1        0.0517
     23 C         139.3855  140.7975  159.4938 C.2     1  UNL1        0.0551
     24 N         140.1589  142.0824  159.5276 N.2     1  UNL1       -0.2503
     25 C         139.6027  142.9291  160.6338 C.2     1  UNL1        0.0770
     26 C         139.9692  144.2953  161.1333 C.2     1  UNL1        0.0184
     27 C         139.2185  144.8998  162.2827 C.2     1  UNL1       -0.0027
     28 C         138.1015  144.1383  162.9325 C.2     1  UNL1       -0.0213
     29 C         137.7351  142.7722  162.4330 C.3     1  UNL1        0.0535
     30 C         138.4857  142.1677  161.2836 C.2     1  UNL1       -0.0030
     31 C         138.3515  140.8503  160.5791 C.2     1  UNL1       -0.0094
@<TRIPOS>BOND
     1    22    23    1
     2    23    24    2
     3    24    25    1
     4    25    26    2
     5    26    27    1
     6    27    28    2
     7    28    29    1
     8    29    30    1
     9    30    31    2
    10    31    21    1
    11    21    20    1
    12    20     1    1
    13     1     2    1
    14     2     3    1
    15     3     4    1
    16     4     5   ar
    17     5     6   ar
    18     6     7   ar
    19     7    12    1
    20    12    13    2
    21    13    14    1
    22    14    15    2
    23    14    16   am
    24    16    17    1
    25     7     8   ar
    26     8     9   ar
    27     9    10    1
    28    10    11    1
    29    31    23    1
    30    11     1    1
    31    30    25    1
    32     9     4   ar
    33    16    18    1
    34    17    19    1
@<TRIPOS>MOLECULE
*****
 31 34 0 0 0
SMALL
GASTEIGER

@<TRIPOS>ATOM
      1 N         142.7338  138.1120  162.5766 N.3     1  UNL1       -0.2718
      2 C         141.3174  137.6589  162.3797 C.3     1  UNL1        0.0768
      3 C         140.1473  137.8186  163.3046 C.3     1  UNL1        0.0433
      4 C         140.1045  138.4708  164.6546 C.ar    1  UNL1       -0.0247
      5 C         138.7274  138.4150  165.2467 C.ar    1  UNL1       -0.0045
      6 C         138.4671  139.0128  166.5976 C.ar    1  UNL1       -0.0003
      7 C         139.5838  139.6664  167.3564 C.ar    1  UNL1       -0.0002
      8 C         140.9609  139.7222  166.7643 C.ar    1  UNL1       -0.0045
      9 C         141.2212  139.1244  165.4134 C.ar    1  UNL1       -0.0247
     10 C         142.6566  139.2872  165.0094 C.3     1  UNL1        0.0433
     11 C         143.3297  138.8366  163.7469 C.3     1  UNL1        0.0768
     12 C         139.3235  140.2642  168.7073 C.2     1  UNL1        0.0047
     13 C         140.3013  141.2360  169.2983 C.2     1  UNL1        0.0598
     14 C         140.0410  141.8338  170.6492 C.2     1  UNL1        0.2679
     15 O         140.7000  141.2541  171.8656 O.2     1  UNL1       -0.2681
     16 N         139.1216  143.0114  170.7837 N.am    1  UNL1       -0.1934
     17 O         138.8613  143.6092  172.1346 O.3     1  UNL1       -0.2949
     18 H         138.6891  143.3920  169.9854 H       1  UNL1        0.1825
     19 H         139.3608  143.1195  172.8066 H       1  UNL1        0.2414
     20 C         143.6791  137.7990  161.4548 C.3     1  UNL1        0.0769
     21 C         144.1094  138.8834  160.5120 C.3     1  UNL1        0.0446
     22 C         141.4896  139.3670  158.6272 C.3     1  UNL1        0.0517
     23 C         142.1107  140.3743  159.5490 C.2     1  UNL1        0.0551
     24 N         141.6366  141.7808  159.7662 N.2     1  UNL1       -0.2503
     25 C         142.5478  142.4277  160.7668 C.2     1  UNL1        0.0770
     26 C         142.5671  143.8034  161.3644 C.2     1  UNL1        0.0184
     27 C         143.6236  144.1724  162.3632 C.2     1  UNL1       -0.0027
     28 C         144.6608  143.1659  162.7644 C.2     1  UNL1       -0.0213
     29 C         144.6415  141.7902  162.1667 C.3     1  UNL1        0.0535
     30 C         143.5850  141.4212  161.1679 C.2     1  UNL1       -0.0030
     31 C         143.3148  140.1521  160.4153 C.2     1  UNL1       -0.0094
@<TRIPOS>BOND
     1    22    23    1
     2    23    24    2
     3    24    25    1
     4    25    26    2
     5    26    27    1
     6    27    28    2
     7    28    29    1
     8    29    30    1
     9    30    31    2
    10    31    21    1
    11    21    20    1
    12    20     1    1
    13     1     2    1
    14     2     3    1
    15     3     4    1
    16     4     5   ar
    17     5     6   ar
    18     6     7   ar
    19     7    12    1
    20    12    13    2
    21    13    14    1
    22    14    15    2
    23    14    16   am
    24    16    17    1
    25     7     8   ar
    26     8     9   ar
    27     9    10    1
    28    10    11    1
    29    31    23    1
    30    11     1    1
    31    30    25    1
    32     9     4   ar
    33    16    18    1
    34    17    19    1
@<TRIPOS>MOLECULE
*****
 31 34 0 0 0
SMALL
GASTEIGER

@<TRIPOS>ATOM
      1 N         138.3708  140.8525  160.2520 N.3     1  UNL1       -0.2718
      2 C         138.6745  139.3842  160.2973 C.3     1  UNL1        0.0768
      3 C         138.8120  138.4943  161.4970 C.3     1  UNL1        0.0433
      4 C         138.6799  138.8528  162.9474 C.ar    1  UNL1       -0.0247
      5 C         138.8935  137.6581  163.8290 C.ar    1  UNL1       -0.0045
      6 C         138.8048  137.8003  165.3195 C.ar    1  UNL1       -0.0003
      7 C         138.5025  139.1373  165.9287 C.ar    1  UNL1       -0.0002
      8 C         138.2889  140.3321  165.0472 C.ar    1  UNL1       -0.0045
      9 C         138.3776  140.1898  163.5566 C.ar    1  UNL1       -0.0247
     10 C         138.1328  141.4985  162.8657 C.3     1  UNL1        0.0433
     11 C         138.1298  141.7934  161.3949 C.3     1  UNL1        0.0768
     12 C         138.4137  139.2796  167.4193 C.2     1  UNL1        0.0047
     13 C         139.5019  139.9871  168.1712 C.2     1  UNL1        0.0598
     14 C         139.4131  140.1293  169.6618 C.2     1  UNL1        0.2679
     15 O         138.0968  139.9419  170.3561 O.2     1  UNL1       -0.2681
     16 N         140.6408  140.4591  170.4582 N.am    1  UNL1       -0.1934
     17 O         140.5521  140.6014  171.9488 O.3     1  UNL1       -0.2949
     18 H         141.5048  140.5821  170.0025 H       1  UNL1        0.1825
     19 H         139.6375  140.4500  172.2341 H       1  UNL1        0.2414
     20 C         138.2988  141.4601  158.8824 C.3     1  UNL1        0.0769
     21 C         139.5564  141.8802  158.1812 C.3     1  UNL1        0.0446
     22 C         141.5791  143.5730  160.1028 C.3     1  UNL1        0.0517
     23 C         140.8186  144.1147  158.9289 C.2     1  UNL1        0.0551
     24 N         140.8543  145.5297  158.4322 N.2     1  UNL1       -0.2503
     25 C         139.9465  145.6260  157.2420 C.2     1  UNL1        0.0770
     26 C         139.5862  146.7730  156.3448 C.2     1  UNL1        0.0184
     27 C         138.6292  146.5644  155.2087 C.2     1  UNL1       -0.0027
     28 C         138.0326  145.2092  154.9698 C.2     1  UNL1       -0.0213
     29 C         138.3929  144.0623  155.8670 C.3     1  UNL1        0.0535
     30 C         139.3499  144.2708  157.0030 C.2     1  UNL1       -0.0030
     31 C         139.8888  143.3367  158.0456 C.2     1  UNL1       -0.0094
@<TRIPOS>BOND
     1    22    23    1
     2    23    24    2
     3    24    25    1
     4    25    26    2
     5    26    27    1
     6    27    28    2
     7    28    29    1
     8    29    30    1
     9    30    31    2
    10    31    21    1
    11    21    20    1
    12    20     1    1
    13     1     2    1
    14     2     3    1
    15     3     4    1
    16     4     5   ar
    17     5     6   ar
    18     6     7   ar
    19     7    12    1
    20    12    13    2
    21    13    14    1
    22    14    15    2
    23    14    16   am
    24    16    17    1
    25     7     8   ar
    26     8     9   ar
    27     9    10    1
    28    10    11    1
    29    31    23    1
    30    11     1    1
    31    30    25    1
    32     9     4   ar
    33    16    18    1
    34    17    19    1
@<TRIPOS>MOLECULE
*****
 31 34 0 0 0
SMALL
GASTEIGER

@<TRIPOS>ATOM
      1 N         138.5197  141.7658  160.6257 N.3     1  UNL1       -0.2718
      2 C         138.7233  140.2860  160.4874 C.3     1  UNL1        0.0768
      3 C         138.8101  139.2490  161.5678 C.3     1  UNL1        0.0433
      4 C         138.7147  139.4355  163.0530 C.ar    1  UNL1       -0.0247
      5 C         138.8539  138.1304  163.7792 C.ar    1  UNL1       -0.0045
      6 C         138.7874  138.0949  165.2773 C.ar    1  UNL1       -0.0003
      7 C         138.5817  139.3645  166.0493 C.ar    1  UNL1       -0.0002
      8 C         138.4424  140.6696  165.3230 C.ar    1  UNL1       -0.0045
      9 C         138.5089  140.7050  163.8249 C.ar    1  UNL1       -0.0247
     10 C         138.3478  142.1017  163.3021 C.3     1  UNL1        0.0433
     11 C         138.3526  142.5737  161.8783 C.3     1  UNL1        0.0768
     12 C         138.5152  139.3290  167.5474 C.2     1  UNL1        0.0047
     13 C         139.4785  140.1421  168.3602 C.2     1  UNL1        0.0598
     14 C         139.4120  140.1066  169.8583 C.2     1  UNL1        0.2679
     15 O         138.1284  139.7422  170.5438 O.2     1  UNL1       -0.2681
     16 N         140.6291  140.4356  170.6711 N.am    1  UNL1       -0.1934
     17 O         140.5626  140.4001  172.1692 O.3     1  UNL1       -0.2949
     18 H         141.4715  140.6748  170.2213 H       1  UNL1        0.1825
     19 H         139.6680  140.1484  172.4473 H       1  UNL1        0.2414
     20 C         138.4777  142.5397  159.3415 C.3     1  UNL1        0.0769
     21 C         139.6089  143.4564  158.9809 C.3     1  UNL1        0.0446
     22 C         141.6700  141.4101  157.4928 C.3     1  UNL1        0.0517
     23 C         141.9528  142.1941  158.7399 C.2     1  UNL1        0.0551
     24 N         143.2326  142.1750  159.5221 N.2     1  UNL1       -0.2503
     25 C         143.0762  143.1039  160.6895 C.2     1  UNL1        0.0770
     26 C         144.0094  143.4862  161.7999 C.2     1  UNL1        0.0184
     27 C         143.5660  144.4617  162.8497 C.2     1  UNL1       -0.0027
     28 C         142.1896  145.0547  162.7891 C.2     1  UNL1       -0.0213
     29 C         141.2565  144.6723  161.6786 C.3     1  UNL1        0.0535
     30 C         141.6998  143.6969  160.6289 C.2     1  UNL1       -0.0030
     31 C         141.0055  143.1346  159.4240 C.2     1  UNL1       -0.0094
@<TRIPOS>BOND
     1    22    23    1
     2    23    24    2
     3    24    25    1
     4    25    26    2
     5    26    27    1
     6    27    28    2
     7    28    29    1
     8    29    30    1
     9    30    31    2
    10    31    21    1
    11    21    20    1
    12    20     1    1
    13     1     2    1
    14     2     3    1
    15     3     4    1
    16     4     5   ar
    17     5     6   ar
    18     6     7   ar
    19     7    12    1
    20    12    13    2
    21    13    14    1
    22    14    15    2
    23    14    16   am
    24    16    17    1
    25     7     8   ar
    26     8     9   ar
    27     9    10    1
    28    10    11    1
    29    31    23    1
    30    11     1    1
    31    30    25    1
    32     9     4   ar
    33    16    18    1
    34    17    19    1
@<TRIPOS>MOLECULE
*****
 31 34 0 0 0
SMALL
GASTEIGER

@<TRIPOS>ATOM
      1 N         138.5233  140.9992  160.3087 N.3     1  UNL1       -0.2718
      2 C         138.7537  139.5170  160.3134 C.3     1  UNL1        0.0768
      3 C         138.8396  138.5876  161.4878 C.3     1  UNL1        0.0433
      4 C         138.7162  138.9110  162.9472 C.ar    1  UNL1       -0.0247
      5 C         138.8649  137.6826  163.7952 C.ar    1  UNL1       -0.0045
      6 C         138.7740  137.7867  165.2888 C.ar    1  UNL1       -0.0003
      7 C         138.5344  139.1192  165.9346 C.ar    1  UNL1       -0.0002
      8 C         138.3856  140.3477  165.0866 C.ar    1  UNL1       -0.0045
      9 C         138.4766  140.2435  163.5930 C.ar    1  UNL1       -0.0247
     10 C         138.3011  141.5818  162.9387 C.3     1  UNL1        0.0433
     11 C         138.3219  141.9181  161.4770 C.3     1  UNL1        0.0768
     12 C         138.4434  139.2234  167.4282 C.2     1  UNL1        0.0047
     13 C         139.4573  140.0272  168.1870 C.2     1  UNL1        0.0598
     14 C         139.3664  140.1313  169.6806 C.2     1  UNL1        0.2679
     15 O         138.0409  139.9712  170.3643 O.2     1  UNL1       -0.2681
     16 N         140.6010  140.3957  170.4905 N.am    1  UNL1       -0.1934
     17 O         140.5100  140.4998  171.9841 O.3     1  UNL1       -0.2949
     18 H         141.4709  140.5008  170.0418 H       1  UNL1        0.1825
     19 H         139.5893  140.3728  172.2617 H       1  UNL1        0.2414
     20 C         138.4899  141.6483  158.9568 C.3     1  UNL1        0.0769
     21 C         139.7719  141.9867  158.2555 C.3     1  UNL1        0.0446
     22 C         140.2246  145.2156  158.3926 C.3     1  UNL1        0.0517
     23 C         141.0765  144.1768  159.0596 C.2     1  UNL1        0.0551
     24 N         142.2862  144.4398  159.9068 N.2     1  UNL1       -0.2503
     25 C         142.8257  143.1181  160.3673 C.2     1  UNL1        0.0770
     26 C         144.0017  142.7584  161.2263 C.2     1  UNL1        0.0184
     27 C         144.3014  141.3188  161.5226 C.2     1  UNL1       -0.0027
     28 C         143.4253  140.2391  160.9602 C.2     1  UNL1       -0.0213
     29 C         142.2493  140.5989  160.1012 C.3     1  UNL1        0.0535
     30 C         141.9496  142.0384  159.8048 C.2     1  UNL1       -0.0030
     31 C         140.8685  142.6927  158.9966 C.2     1  UNL1       -0.0094
@<TRIPOS>BOND
     1    22    23    1
     2    23    24    2
     3    24    25    1
     4    25    26    2
     5    26    27    1
     6    27    28    2
     7    28    29    1
     8    29    30    1
     9    30    31    2
    10    31    21    1
    11    21    20    1
    12    20     1    1
    13     1     2    1
    14     2     3    1
    15     3     4    1
    16     4     5   ar
    17     5     6   ar
    18     6     7   ar
    19     7    12    1
    20    12    13    2
    21    13    14    1
    22    14    15    2
    23    14    16   am
    24    16    17    1
    25     7     8   ar
    26     8     9   ar
    27     9    10    1
    28    10    11    1
    29    31    23    1
    30    11     1    1
    31    30    25    1
    32     9     4   ar
    33    16    18    1
    34    17    19    1
@<TRIPOS>MOLECULE
*****
 31 34 0 0 0
SMALL
GASTEIGER

@<TRIPOS>ATOM
      1 N         141.2371  141.5034  164.2610 N.3     1  UNL1       -0.2718
      2 C         141.5802  142.6557  165.1581 C.3     1  UNL1        0.0768
      3 C         141.2484  142.8423  166.6091 C.3     1  UNL1        0.0433
      4 C         140.4918  141.9228  167.5211 C.ar    1  UNL1       -0.0247
      5 C         140.3821  142.4917  168.9048 C.ar    1  UNL1       -0.0045
      6 C         139.6606  141.7273  169.9749 C.ar    1  UNL1       -0.0003
      7 C         139.0487  140.3941  169.6615 C.ar    1  UNL1       -0.0002
      8 C         139.1584  139.8253  168.2778 C.ar    1  UNL1       -0.0045
      9 C         139.8800  140.5896  167.2077 C.ar    1  UNL1       -0.0247
     10 C         139.8737  139.8466  165.9046 C.3     1  UNL1        0.0433
     11 C         140.4777  140.2534  164.5932 C.3     1  UNL1        0.0768
     12 C         138.3272  139.6298  170.7316 C.2     1  UNL1        0.0047
     13 C         137.0396  138.9290  170.4141 C.2     1  UNL1        0.0598
     14 C         136.3181  138.1647  171.4842 C.2     1  UNL1        0.2679
     15 O         136.7414  136.7658  171.8218 O.2     1  UNL1       -0.2681
     16 N         135.1732  138.7992  172.2168 N.am    1  UNL1       -0.1934
     17 O         134.4517  138.0349  173.2869 O.3     1  UNL1       -0.2949
     18 H         134.8953  139.7173  171.9953 H       1  UNL1        0.1825
     19 H         134.8482  137.1543  173.3786 H       1  UNL1        0.2414
     20 C         141.7171  141.6163  162.8443 C.3     1  UNL1        0.0769
     21 C         140.7290  141.7908  161.7294 C.3     1  UNL1        0.0446
     22 C         138.8138  144.1414  162.9361 C.3     1  UNL1        0.0517
     23 C         139.6303  144.2271  161.6808 C.2     1  UNL1        0.0551
     24 N         139.7098  145.4084  160.7597 N.2     1  UNL1       -0.2503
     25 C         140.6393  145.0579  159.6357 C.2     1  UNL1        0.0770
     26 C         141.0990  145.8312  158.4353 C.2     1  UNL1        0.0184
     27 C         142.0536  145.2064  157.4614 C.2     1  UNL1       -0.0027
     28 C         142.5485  143.8087  157.6878 C.2     1  UNL1       -0.0213
     29 C         142.0888  143.0356  158.8882 C.3     1  UNL1        0.0535
     30 C         141.1342  143.6602  159.8621 C.2     1  UNL1       -0.0030
     31 C         140.5106  143.1467  161.1260 C.2     1  UNL1       -0.0094
@<TRIPOS>BOND
     1    22    23    1
     2    23    24    2
     3    24    25    1
     4    25    26    2
     5    26    27    1
     6    27    28    2
     7    28    29    1
     8    29    30    1
     9    30    31    2
    10    31    21    1
    11    21    20    1
    12    20     1    1
    13     1     2    1
    14     2     3    1
    15     3     4    1
    16     4     5   ar
    17     5     6   ar
    18     6     7   ar
    19     7    12    1
    20    12    13    2
    21    13    14    1
    22    14    15    2
    23    14    16   am
    24    16    17    1
    25     7     8   ar
    26     8     9   ar
    27     9    10    1
    28    10    11    1
    29    31    23    1
    30    11     1    1
    31    30    25    1
    32     9     4   ar
    33    16    18    1
    34    17    19    1
@<TRIPOS>MOLECULE
*****
 31 34 0 0 0
SMALL
GASTEIGER

@<TRIPOS>ATOM
      1 N         141.9959  138.1816  161.9098 N.3     1  UNL1       -0.2718
      2 C         140.6056  137.6276  162.0109 C.3     1  UNL1        0.0768
      3 C         139.6210  137.7712  163.1334 C.3     1  UNL1        0.0433
      4 C         139.7835  138.5042  164.4319 C.ar    1  UNL1       -0.0247
      5 C         138.5499  138.3989  165.2788 C.ar    1  UNL1       -0.0045
      6 C         138.5036  139.0640  166.6225 C.ar    1  UNL1       -0.0003
      7 C         139.6908  139.8345  167.1194 C.ar    1  UNL1       -0.0002
      8 C         140.9244  139.9398  166.2724 C.ar    1  UNL1       -0.0045
      9 C         140.9707  139.2747  164.9288 C.ar    1  UNL1       -0.0247
     10 C         142.2887  139.5025  164.2497 C.3     1  UNL1        0.0433
     11 C         142.7449  139.0159  162.9061 C.3     1  UNL1        0.0768
     12 C         139.6444  140.4996  168.4630 C.2     1  UNL1        0.0047
     13 C         140.3077  141.8297  168.6646 C.2     1  UNL1        0.0598
     14 C         140.2614  142.4948  170.0083 C.2     1  UNL1        0.2679
     15 O         140.0455  143.9761  170.1050 O.2     1  UNL1       -0.2681
     16 N         140.4308  141.6787  171.2555 N.am    1  UNL1       -0.1934
     17 O         140.3845  142.3438  172.5991 O.3     1  UNL1       -0.2949
     18 H         140.5725  140.7065  171.1920 H       1  UNL1        0.1825
     19 H         140.2389  143.2958  172.4838 H       1  UNL1        0.2414
     20 C         142.7348  137.8584  160.6451 C.3     1  UNL1        0.0769
     21 C         142.5107  138.6847  159.4134 C.3     1  UNL1        0.0446
     22 C         139.3920  139.6320  159.2514 C.3     1  UNL1        0.0517
     23 C         140.0744  138.6810  158.3135 C.2     1  UNL1        0.0551
     24 N         139.4431  137.9983  157.1364 N.2     1  UNL1       -0.2503
     25 C         140.4864  137.1410  156.4834 C.2     1  UNL1        0.0770
     26 C         140.4392  136.2409  155.2843 C.2     1  UNL1        0.0184
     27 C         141.6683  135.4937  154.8588 C.2     1  UNL1       -0.0027
     28 C         142.9444  135.6464  155.6322 C.2     1  UNL1       -0.0213
     29 C         142.9914  136.5465  156.8313 C.3     1  UNL1        0.0535
     30 C         141.7625  137.2937  157.2568 C.2     1  UNL1       -0.0030
     31 C         141.5078  138.2455  158.3879 C.2     1  UNL1       -0.0094
@<TRIPOS>BOND
     1    22    23    1
     2    23    24    2
     3    24    25    1
     4    25    26    2
     5    26    27    1
     6    27    28    2
     7    28    29    1
     8    29    30    1
     9    30    31    2
    10    31    21    1
    11    21    20    1
    12    20     1    1
    13     1     2    1
    14     2     3    1
    15     3     4    1
    16     4     5   ar
    17     5     6   ar
    18     6     7   ar
    19     7    12    1
    20    12    13    2
    21    13    14    1
    22    14    15    2
    23    14    16   am
    24    16    17    1
    25     7     8   ar
    26     8     9   ar
    27     9    10    1
    28    10    11    1
    29    31    23    1
    30    11     1    1
    31    30    25    1
    32     9     4   ar
    33    16    18    1
    34    17    19    1
@<TRIPOS>MOLECULE
*****
 31 34 0 0 0
SMALL
GASTEIGER

@<TRIPOS>ATOM
      1 N         140.0182  140.2611  160.7428 N.3     1  UNL1       -0.2718
      2 C         139.6479  138.8206  160.9380 C.3     1  UNL1        0.0768
      3 C         139.2942  138.1102  162.2110 C.3     1  UNL1        0.0433
      4 C         139.2234  138.6647  163.6028 C.ar    1  UNL1       -0.0247
      5 C         138.8289  137.6098  164.5936 C.ar    1  UNL1       -0.0045
      6 C         138.6999  137.9568  166.0472 C.ar    1  UNL1       -0.0003
      7 C         138.9654  139.3587  166.5101 C.ar    1  UNL1       -0.0002
      8 C         139.3599  140.4136  165.5193 C.ar    1  UNL1       -0.0045
      9 C         139.4889  140.0666  164.0657 C.ar    1  UNL1       -0.0247
     10 C         139.8907  141.2602  163.2510 C.3     1  UNL1        0.0433
     11 C         140.1263  141.3467  161.7721 C.3     1  UNL1        0.0768
     12 C         138.8364  139.7056  167.9637 C.2     1  UNL1        0.0047
     13 C         140.0426  140.1445  168.7398 C.2     1  UNL1        0.0598
     14 C         139.9136  140.4915  170.1934 C.2     1  UNL1        0.2679
     15 O         139.2281  139.5440  171.1328 O.2     1  UNL1       -0.2681
     16 N         140.4701  141.7861  170.7078 N.am    1  UNL1       -0.1934
     17 O         140.3411  142.1331  172.1613 O.3     1  UNL1       -0.2949
     18 H         140.9200  142.4080  170.0913 H       1  UNL1        0.1825
     19 H         139.8761  141.4187  172.6243 H       1  UNL1        0.2414
     20 C         140.3205  140.6697  159.3315 C.3     1  UNL1        0.0769
     21 C         141.7410  140.7165  158.8521 C.3     1  UNL1        0.0446
     22 C         142.9335  143.6821  158.1940 C.3     1  UNL1        0.0517
     23 C         143.3269  142.8100  159.3493 C.2     1  UNL1        0.0551
     24 N         144.3376  143.1480  160.4049 N.2     1  UNL1       -0.2503
     25 C         144.4140  141.9938  161.3598 C.2     1  UNL1        0.0770
     26 C         145.2365  141.7643  162.5932 C.2     1  UNL1        0.0184
     27 C         145.0955  140.4834  163.3609 C.2     1  UNL1       -0.0027
     28 C         144.1322  139.4321  162.8955 C.2     1  UNL1       -0.0213
     29 C         143.3097  139.6616  161.6622 C.3     1  UNL1        0.0535
     30 C         143.4507  140.9425  160.8944 C.2     1  UNL1       -0.0030
     31 C         142.7788  141.4469  159.6518 C.2     1  UNL1       -0.0094
@<TRIPOS>BOND
     1    22    23    1
     2    23    24    2
     3    24    25    1
     4    25    26    2
     5    26    27    1
     6    27    28    2
     7    28    29    1
     8    29    30    1
     9    30    31    2
    10    31    21    1
    11    21    20    1
    12    20     1    1
    13     1     2    1
    14     2     3    1
    15     3     4    1
    16     4     5   ar
    17     5     6   ar
    18     6     7   ar
    19     7    12    1
    20    12    13    2
    21    13    14    1
    22    14    15    2
    23    14    16   am
    24    16    17    1
    25     7     8   ar
    26     8     9   ar
    27     9    10    1
    28    10    11    1
    29    31    23    1
    30    11     1    1
    31    30    25    1
    32     9     4   ar
    33    16    18    1
    34    17    19    1
@<TRIPOS>MOLECULE
*****
 31 34 0 0 0
SMALL
GASTEIGER

@<TRIPOS>ATOM
      1 N         138.2435  140.9621  160.3161 N.3     1  UNL1       -0.2718
      2 C         138.5330  139.4902  160.3213 C.3     1  UNL1        0.0768
      3 C         138.6906  138.5723  161.4972 C.3     1  UNL1        0.0433
      4 C         138.5976  138.8994  162.9581 C.ar    1  UNL1       -0.0247
      5 C         138.8203  137.6831  163.8073 C.ar    1  UNL1       -0.0045
      6 C         138.7694  137.7927  165.3024 C.ar    1  UNL1       -0.0003
      7 C         138.4958  139.1186  165.9484 C.ar    1  UNL1       -0.0002
      8 C         138.2731  140.3349  165.0992 C.ar    1  UNL1       -0.0045
      9 C         138.3240  140.2253  163.6041 C.ar    1  UNL1       -0.0247
     10 C         138.0758  141.5515  162.9486 C.3     1  UNL1        0.0433
     11 C         138.0400  141.8793  161.4853 C.3     1  UNL1        0.0768
     12 C         138.4449  139.2282  167.4435 C.2     1  UNL1        0.0047
     13 C         139.4620  140.0576  168.1697 C.2     1  UNL1        0.0598
     14 C         139.4111  140.1672  169.6648 C.2     1  UNL1        0.2679
     15 O         138.1084  139.9865  170.3862 O.2     1  UNL1       -0.2681
     16 N         140.6629  140.4575  170.4387 N.am    1  UNL1       -0.1934
     17 O         140.6120  140.5671  171.9338 O.3     1  UNL1       -0.2949
     18 H         141.5179  140.5761  169.9652 H       1  UNL1        0.1825
     19 H         139.7019  140.4249  172.2376 H       1  UNL1        0.2414
     20 C         138.1443  141.6009  158.9626 C.3     1  UNL1        0.0769
     21 C         138.2332  140.7563  157.7262 C.3     1  UNL1        0.0446
     22 C         140.1610  142.4926  155.7467 C.3     1  UNL1        0.0517
     23 C         138.7295  142.1282  155.4864 C.2     1  UNL1        0.0551
     24 N         137.9327  142.4980  154.2705 N.2     1  UNL1       -0.2503
     25 C         136.5541  141.9284  154.4289 C.2     1  UNL1        0.0770
     26 C         135.3419  141.9737  153.5464 C.2     1  UNL1        0.0184
     27 C         134.0745  141.2972  153.9780 C.2     1  UNL1       -0.0027
     28 C         134.0193  140.5755  155.2917 C.2     1  UNL1       -0.0213
     29 C         135.2315  140.5302  156.1740 C.3     1  UNL1        0.0535
     30 C         136.4989  141.2066  155.7426 C.2     1  UNL1       -0.0030
     31 C         137.8433  141.3302  156.3962 C.2     1  UNL1       -0.0094
@<TRIPOS>BOND
     1    22    23    1
     2    23    24    2
     3    24    25    1
     4    25    26    2
     5    26    27    1
     6    27    28    2
     7    28    29    1
     8    29    30    1
     9    30    31    2
    10    31    21    1
    11    21    20    1
    12    20     1    1
    13     1     2    1
    14     2     3    1
    15     3     4    1
    16     4     5   ar
    17     5     6   ar
    18     6     7   ar
    19     7    12    1
    20    12    13    2
    21    13    14    1
    22    14    15    2
    23    14    16   am
    24    16    17    1
    25     7     8   ar
    26     8     9   ar
    27     9    10    1
    28    10    11    1
    29    31    23    1
    30    11     1    1
    31    30    25    1
    32     9     4   ar
    33    16    18    1
    34    17    19    1
