@<TRIPOS>MOLECULE
*****
 28 30 0 0 0
SMALL
GASTEIGER

@<TRIPOS>ATOM
      1 N         142.7682  143.6450  164.4504 N.pl3   1  UNL1       -0.1766
      2 C         141.3942  144.0868  164.0418 C.ar    1  UNL1        0.0853
      3 C         140.9052  144.8979  162.8787 C.ar    1  UNL1        0.0175
      4 C         139.4409  145.1858  162.7279 C.ar    1  UNL1        0.0014
      5 C         138.4655  144.6625  163.7403 C.ar    1  UNL1        0.0014
      6 C         138.9546  143.8514  164.9034 C.ar    1  UNL1        0.0179
      7 C         140.4189  143.5635  165.0541 C.ar    1  UNL1        0.0898
      8 N         141.1902  142.7984  166.0884 N.pl3   1  UNL1       -0.1533
      9 S         142.6421  142.8487  165.7153 S.O2    1  UNL1        0.1340
     10 O         144.1329  142.7273  165.6016 O.2     1  UNL1       -0.1342
     11 O         142.8276  142.0270  166.9564 O.2     1  UNL1       -0.1342
     12 C         140.6110  142.1046  167.2857 C.ar    1  UNL1        0.1045
     13 C         140.5361  142.8184  168.6027 C.ar    1  UNL1        0.0485
     14 C         139.9570  142.1247  169.8000 C.ar    1  UNL1        0.1416
     15 F         139.8821  142.8386  171.1171 F       1  UNL1       -0.2041
     16 C         139.4528  140.7171  169.6801 C.ar    1  UNL1        0.0320
     17 C         139.5277  140.0032  168.3630 C.ar    1  UNL1        0.0333
     18 C         140.1068  140.6969  167.1658 C.ar    1  UNL1        0.1555
     19 F         140.1817  139.9830  165.8487 F       1  UNL1       -0.2028
     20 C         144.0443  143.9466  163.7219 C.3     1  UNL1        0.1198
     21 C         144.3796  143.2090  162.4595 C.3     1  UNL1        0.0541
     22 C         145.1089  141.9000  162.5268 C.3     1  UNL1        0.1280
     23 O         146.4041  141.8007  163.2770 O.3     1  UNL1       -0.3830
     24 H         146.6257  142.6659  163.6554 H       1  UNL1        0.2104
     25 C         144.5431  140.6903  161.8439 C.3     1  UNL1        0.0982
     26 C         144.0156  139.2262  163.9245 C.3     1  UNL1        0.0859
     27 N         144.5660  139.3593  162.5354 N.3     1  UNL1       -0.2943
     28 H         144.0403  138.7128  161.9472 H       1  UNL1        0.1234
@<TRIPOS>BOND
     1    26    27    1
     2    27    25    1
     3    25    22    1
     4    22    23    1
     5    22    21    1
     6    21    20    1
     7    20     1    1
     8     1     2    1
     9     2     3   ar
    10     3     4   ar
    11     4     5   ar
    12     5     6   ar
    13     6     7   ar
    14     7     8    1
    15     8    12    1
    16    12    13   ar
    17    13    14   ar
    18    14    15    1
    19    14    16   ar
    20    16    17   ar
    21    17    18   ar
    22    18    19    1
    23     8     9    1
    24     9    10    2
    25     9    11    2
    26     9     1    1
    27     7     2   ar
    28    18    12   ar
    29    27    28    1
    30    23    24    1
@<TRIPOS>MOLECULE
*****
 28 30 0 0 0
SMALL
GASTEIGER

@<TRIPOS>ATOM
      1 N         141.4908  141.8220  163.3241 N.pl3   1  UNL1       -0.1766
      2 C         140.5087  142.8401  163.8228 C.ar    1  UNL1        0.0853
      3 C         139.5771  143.7715  163.1054 C.ar    1  UNL1        0.0175
      4 C         138.6932  144.6974  163.8873 C.ar    1  UNL1        0.0014
      5 C         138.7408  144.6919  165.3865 C.ar    1  UNL1        0.0014
      6 C         139.6724  143.7606  166.1039 C.ar    1  UNL1        0.0179
      7 C         140.5563  142.8347  165.3220 C.ar    1  UNL1        0.0898
      8 N         141.5680  141.8131  165.7499 N.pl3   1  UNL1       -0.1533
      9 S         142.1455  141.1872  164.5151 S.O2    1  UNL1        0.1340
     10 O         142.8926  140.3940  163.4842 O.2     1  UNL1       -0.1342
     11 O         142.9564  140.3867  165.4906 O.2     1  UNL1       -0.1342
     12 C         141.9372  141.4766  167.1642 C.ar    1  UNL1        0.1045
     13 C         143.0364  142.2305  167.8521 C.ar    1  UNL1        0.0485
     14 C         143.4056  141.8940  169.2665 C.ar    1  UNL1        0.1416
     15 F         144.5049  142.6479  169.9543 F       1  UNL1       -0.2041
     16 C         142.6756  140.8034  169.9930 C.ar    1  UNL1        0.0320
     17 C         141.5763  140.0495  169.3051 C.ar    1  UNL1        0.0333
     18 C         141.2071  140.3860  167.8908 C.ar    1  UNL1        0.1555
     19 F         140.1079  139.6320  167.2029 F       1  UNL1       -0.2028
     20 C         141.7694  141.4958  161.8867 C.3     1  UNL1        0.1198
     21 C         142.5220  142.4695  161.0289 C.3     1  UNL1        0.0541
     22 C         143.1597  143.6777  161.6483 C.3     1  UNL1        0.1280
     23 O         142.4856  145.0142  161.5519 O.3     1  UNL1       -0.3830
     24 H         141.6540  144.9222  161.0611 H       1  UNL1        0.2104
     25 C         144.4717  143.5493  162.3640 C.3     1  UNL1        0.0982
     26 C         145.8972  141.7338  163.5568 C.3     1  UNL1        0.0859
     27 N         145.2264  142.2537  162.3198 N.3     1  UNL1       -0.2943
     28 H         144.5646  141.5375  162.0206 H       1  UNL1        0.1234
@<TRIPOS>BOND
     1    26    27    1
     2    27    25    1
     3    25    22    1
     4    22    23    1
     5    22    21    1
     6    21    20    1
     7    20     1    1
     8     1     2    1
     9     2     3   ar
    10     3     4   ar
    11     4     5   ar
    12     5     6   ar
    13     6     7   ar
    14     7     8    1
    15     8    12    1
    16    12    13   ar
    17    13    14   ar
    18    14    15    1
    19    14    16   ar
    20    16    17   ar
    21    17    18   ar
    22    18    19    1
    23     8     9    1
    24     9    10    2
    25     9    11    2
    26     9     1    1
    27     7     2   ar
    28    18    12   ar
    29    27    28    1
    30    23    24    1
@<TRIPOS>MOLECULE
*****
 28 30 0 0 0
SMALL
GASTEIGER

@<TRIPOS>ATOM
      1 N         139.9747  138.6135  164.8955 N.pl3   1  UNL1       -0.1766
      2 C         141.3999  138.8506  164.4925 C.ar    1  UNL1        0.0853
      3 C         142.1903  138.4137  163.2949 C.ar    1  UNL1        0.0175
      4 C         143.6301  138.8123  163.1604 C.ar    1  UNL1        0.0014
      5 C         144.2794  139.6479  164.2235 C.ar    1  UNL1        0.0014
      6 C         143.4890  140.0848  165.4211 C.ar    1  UNL1        0.0179
      7 C         142.0493  139.6862  165.5556 C.ar    1  UNL1        0.0898
      8 N         141.0253  139.9654  166.6156 N.pl3   1  UNL1       -0.1533
      9 S         139.7431  139.3024  166.2077 S.O2    1  UNL1        0.1340
     10 O         138.3518  138.7598  166.0679 O.2     1  UNL1       -0.1342
     11 O         139.2208  139.8780  167.4906 O.2     1  UNL1       -0.1342
     12 C         141.2451  140.7669  167.8643 C.ar    1  UNL1        0.1045
     13 C         140.6465  142.1363  167.9917 C.ar    1  UNL1        0.0485
     14 C         140.8662  142.9378  169.2404 C.ar    1  UNL1        0.1416
     15 F         140.2676  144.3072  169.3677 F       1  UNL1       -0.2041
     16 C         141.6846  142.3698  170.3619 C.ar    1  UNL1        0.0320
     17 C         142.2832  141.0004  170.2346 C.ar    1  UNL1        0.0333
     18 C         142.0635  140.1989  168.9859 C.ar    1  UNL1        0.1555
     19 F         142.6621  138.8294  168.8586 F       1  UNL1       -0.2028
     20 C         138.9592  137.8256  164.1221 C.3     1  UNL1        0.1198
     21 C         138.7794  138.0713  162.6532 C.3     1  UNL1        0.0541
     22 C         137.9976  139.2617  162.1821 C.3     1  UNL1        0.1280
     23 O         136.9396  139.0962  161.1318 O.3     1  UNL1       -0.3830
     24 H         136.8895  138.1643  160.8673 H       1  UNL1        0.2104
     25 C         138.2739  140.6174  162.7614 C.3     1  UNL1        0.0982
     26 C         137.7997  142.4374  164.5539 C.3     1  UNL1        0.0859
     27 N         137.5111  141.0887  163.9639 N.3     1  UNL1       -0.2943
     28 H         136.5241  141.0850  163.7066 H       1  UNL1        0.1234
@<TRIPOS>BOND
     1    26    27    1
     2    27    25    1
     3    25    22    1
     4    22    23    1
     5    22    21    1
     6    21    20    1
     7    20     1    1
     8     1     2    1
     9     2     3   ar
    10     3     4   ar
    11     4     5   ar
    12     5     6   ar
    13     6     7   ar
    14     7     8    1
    15     8    12    1
    16    12    13   ar
    17    13    14   ar
    18    14    15    1
    19    14    16   ar
    20    16    17   ar
    21    17    18   ar
    22    18    19    1
    23     8     9    1
    24     9    10    2
    25     9    11    2
    26     9     1    1
    27     7     2   ar
    28    18    12   ar
    29    27    28    1
    30    23    24    1
@<TRIPOS>MOLECULE
*****
 28 30 0 0 0
SMALL
GASTEIGER

@<TRIPOS>ATOM
      1 N         139.7956  144.1972  163.2003 N.pl3   1  UNL1       -0.1766
      2 C         141.1622  143.9875  163.7819 C.ar    1  UNL1        0.0853
      3 C         142.3560  144.8892  163.8905 C.ar    1  UNL1        0.0175
      4 C         143.6146  144.3925  164.5378 C.ar    1  UNL1        0.0014
      5 C         143.6795  142.9941  165.0765 C.ar    1  UNL1        0.0014
      6 C         142.4858  142.0924  164.9679 C.ar    1  UNL1        0.0179
      7 C         141.2271  142.5891  164.3206 C.ar    1  UNL1        0.0898
      8 N         139.9005  141.9346  164.0719 N.pl3   1  UNL1       -0.1533
      9 S         139.0158  142.9285  163.3796 S.O2    1  UNL1        0.1340
     10 O         137.9201  143.6904  162.6948 O.2     1  UNL1       -0.1342
     11 O         138.0070  141.8190  163.4157 O.2     1  UNL1       -0.1342
     12 C         139.5247  140.5323  164.4494 C.ar    1  UNL1        0.1045
     13 C         138.6857  140.2828  165.6674 C.ar    1  UNL1        0.0485
     14 C         138.3099  138.8805  166.0449 C.ar    1  UNL1        0.1416
     15 F         137.4709  138.6310  167.2630 F       1  UNL1       -0.2041
     16 C         138.7731  137.7278  165.2043 C.ar    1  UNL1        0.0320
     17 C         139.6122  137.9773  163.9862 C.ar    1  UNL1        0.0333
     18 C         139.9880  139.3796  163.6087 C.ar    1  UNL1        0.1555
     19 F         140.8270  139.6291  162.3906 F       1  UNL1       -0.2028
     20 C         139.2963  145.4550  162.5531 C.3     1  UNL1        0.1198
     21 C         140.0050  146.0143  161.3551 C.3     1  UNL1        0.0541
     22 C         140.7201  145.0951  160.4098 C.3     1  UNL1        0.1280
     23 O         142.2080  144.9307  160.5052 O.3     1  UNL1       -0.3830
     24 H         142.5491  145.4845  161.2248 H       1  UNL1        0.2104
     25 C         139.9473  144.3403  159.3692 C.3     1  UNL1        0.0982
     26 C         139.3089  141.8566  159.7863 C.3     1  UNL1        0.0859
     27 N         138.9389  143.3103  159.7843 N.3     1  UNL1       -0.2943
     28 H         138.6547  143.5431  160.7358 H       1  UNL1        0.1234
@<TRIPOS>BOND
     1    26    27    1
     2    27    25    1
     3    25    22    1
     4    22    23    1
     5    22    21    1
     6    21    20    1
     7    20     1    1
     8     1     2    1
     9     2     3   ar
    10     3     4   ar
    11     4     5   ar
    12     5     6   ar
    13     6     7   ar
    14     7     8    1
    15     8    12    1
    16    12    13   ar
    17    13    14   ar
    18    14    15    1
    19    14    16   ar
    20    16    17   ar
    21    17    18   ar
    22    18    19    1
    23     8     9    1
    24     9    10    2
    25     9    11    2
    26     9     1    1
    27     7     2   ar
    28    18    12   ar
    29    27    28    1
    30    23    24    1
@<TRIPOS>MOLECULE
*****
 28 30 0 0 0
SMALL
GASTEIGER

@<TRIPOS>ATOM
      1 N         140.5771  141.0488  164.2634 N.pl3   1  UNL1       -0.1766
      2 C         141.8754  141.7928  164.3669 C.ar    1  UNL1        0.0853
      3 C         142.8003  142.3475  163.3244 C.ar    1  UNL1        0.0175
      4 C         144.0545  143.0594  163.7368 C.ar    1  UNL1        0.0014
      5 C         144.3838  143.2166  165.1918 C.ar    1  UNL1        0.0014
      6 C         143.4590  142.6620  166.2343 C.ar    1  UNL1        0.0179
      7 C         142.2048  141.9501  165.8219 C.ar    1  UNL1        0.0898
      8 N         141.1099  141.3032  166.6174 N.pl3   1  UNL1       -0.1533
      9 S         140.1040  140.7461  165.6543 S.O2    1  UNL1        0.1340
     10 O         138.9487  140.0975  164.9511 O.2     1  UNL1       -0.1342
     11 O         139.3894  140.3079  166.8981 O.2     1  UNL1       -0.1342
     12 C         141.0344  141.2267  168.1136 C.ar    1  UNL1        0.1045
     13 C         140.2629  142.2603  168.8794 C.ar    1  UNL1        0.0485
     14 C         140.1874  142.1839  170.3756 C.ar    1  UNL1        0.1416
     15 F         139.4159  143.2175  171.1413 F       1  UNL1       -0.2041
     16 C         140.8833  141.0738  171.1059 C.ar    1  UNL1        0.0320
     17 C         141.6548  140.0402  170.3402 C.ar    1  UNL1        0.0333
     18 C         141.7304  140.1166  168.8440 C.ar    1  UNL1        0.1555
     19 F         142.5019  139.0830  168.0782 F       1  UNL1       -0.2028
     20 C         139.8751  140.6733  162.9920 C.3     1  UNL1        0.1198
     21 C         139.1107  141.7098  162.2230 C.3     1  UNL1        0.0541
     22 C         137.8343  142.2671  162.7801 C.3     1  UNL1        0.1280
     23 O         136.6871  141.3510  163.0877 O.3     1  UNL1       -0.3830
     24 H         136.9346  140.4387  162.8702 H       1  UNL1        0.2104
     25 C         137.7052  143.7406  163.0295 C.3     1  UNL1        0.0982
     26 C         139.4640  144.6723  164.6994 C.3     1  UNL1        0.0859
     27 N         138.0457  144.3058  164.3766 N.3     1  UNL1       -0.2943
     28 H         137.4896  145.1534  164.4893 H       1  UNL1        0.1234
@<TRIPOS>BOND
     1    26    27    1
     2    27    25    1
     3    25    22    1
     4    22    23    1
     5    22    21    1
     6    21    20    1
     7    20     1    1
     8     1     2    1
     9     2     3   ar
    10     3     4   ar
    11     4     5   ar
    12     5     6   ar
    13     6     7   ar
    14     7     8    1
    15     8    12    1
    16    12    13   ar
    17    13    14   ar
    18    14    15    1
    19    14    16   ar
    20    16    17   ar
    21    17    18   ar
    22    18    19    1
    23     8     9    1
    24     9    10    2
    25     9    11    2
    26     9     1    1
    27     7     2   ar
    28    18    12   ar
    29    27    28    1
    30    23    24    1
@<TRIPOS>MOLECULE
*****
 28 30 0 0 0
SMALL
GASTEIGER

@<TRIPOS>ATOM
      1 N         140.3301  141.1603  167.4958 N.pl3   1  UNL1       -0.1766
      2 C         139.5627  139.9795  166.9790 C.ar    1  UNL1        0.0853
      3 C         138.3085  139.3102  167.4573 C.ar    1  UNL1        0.0175
      4 C         137.7653  138.1215  166.7212 C.ar    1  UNL1        0.0014
      5 C         138.4763  137.6022  165.5068 C.ar    1  UNL1        0.0014
      6 C         139.7305  138.2715  165.0285 C.ar    1  UNL1        0.0179
      7 C         140.2737  139.4602  165.7646 C.ar    1  UNL1        0.0898
      8 N         141.4805  140.3200  165.5310 N.pl3   1  UNL1       -0.1533
      9 S         141.5153  141.3707  166.6009 S.O2    1  UNL1        0.1340
     10 O         141.8107  142.5154  167.5241 O.2     1  UNL1       -0.1342
     11 O         142.7623  141.8204  165.8989 O.2     1  UNL1       -0.1342
     12 C         142.4774  140.1575  164.4220 C.ar    1  UNL1        0.1045
     13 C         142.2628  140.8562  163.1122 C.ar    1  UNL1        0.0485
     14 C         143.2597  140.6938  162.0033 C.ar    1  UNL1        0.1416
     15 F         143.0450  141.3926  160.6935 F       1  UNL1       -0.2041
     16 C         144.4713  139.8325  162.2041 C.ar    1  UNL1        0.0320
     17 C         144.6859  139.1338  163.5139 C.ar    1  UNL1        0.0333
     18 C         143.6890  139.2962  164.6229 C.ar    1  UNL1        0.1555
     19 F         143.9037  138.5974  165.9327 F       1  UNL1       -0.2028
     20 C         139.9745  141.9857  168.6968 C.3     1  UNL1        0.1198
     21 C         139.5066  141.3163  169.9551 C.3     1  UNL1        0.0541
     22 C         140.4517  140.4611  170.7458 C.3     1  UNL1        0.1280
     23 O         139.9995  139.1303  171.2697 O.3     1  UNL1       -0.3830
     24 H         139.0774  138.9771  171.0104 H       1  UNL1        0.2104
     25 C         141.8491  140.9366  171.0124 C.3     1  UNL1        0.0982
     26 C         142.9905  143.2518  170.7165 C.3     1  UNL1        0.0859
     27 N         142.0858  142.3388  171.4899 N.3     1  UNL1       -0.2943
     28 H         141.1737  142.7937  171.5312 H       1  UNL1        0.1234
@<TRIPOS>BOND
     1    26    27    1
     2    27    25    1
     3    25    22    1
     4    22    23    1
     5    22    21    1
     6    21    20    1
     7    20     1    1
     8     1     2    1
     9     2     3   ar
    10     3     4   ar
    11     4     5   ar
    12     5     6   ar
    13     6     7   ar
    14     7     8    1
    15     8    12    1
    16    12    13   ar
    17    13    14   ar
    18    14    15    1
    19    14    16   ar
    20    16    17   ar
    21    17    18   ar
    22    18    19    1
    23     8     9    1
    24     9    10    2
    25     9    11    2
    26     9     1    1
    27     7     2   ar
    28    18    12   ar
    29    27    28    1
    30    23    24    1
@<TRIPOS>MOLECULE
*****
 28 30 0 0 0
SMALL
GASTEIGER

@<TRIPOS>ATOM
      1 N         138.9609  142.1904  164.1211 N.pl3   1  UNL1       -0.1766
      2 C         138.8213  140.7557  163.7060 C.ar    1  UNL1        0.0853
      3 C         138.2343  140.1175  162.4820 C.ar    1  UNL1        0.0175
      4 C         138.2359  138.6242  162.3408 C.ar    1  UNL1        0.0014
      5 C         138.8245  137.7691  163.4235 C.ar    1  UNL1        0.0014
      6 C         139.4115  138.4073  164.6474 C.ar    1  UNL1        0.0179
      7 C         139.4099  139.9006  164.7887 C.ar    1  UNL1        0.0898
      8 N         139.9132  140.8068  165.8729 N.pl3   1  UNL1       -0.1533
      9 S         139.6357  142.2219  165.4603 S.O2    1  UNL1        0.1340
     10 O         139.4930  143.7087  165.3216 O.2     1  UNL1       -0.1342
     11 O         140.2807  142.5643  166.7705 O.2     1  UNL1       -0.1342
     12 C         140.5775  140.3737  167.1462 C.ar    1  UNL1        0.1045
     13 C         139.7852  140.2989  168.4176 C.ar    1  UNL1        0.0485
     14 C         140.4495  139.8659  169.6909 C.ar    1  UNL1        0.1416
     15 F         139.6571  139.7910  170.9624 F       1  UNL1       -0.2041
     16 C         141.9061  139.5077  169.6928 C.ar    1  UNL1        0.0320
     17 C         142.6984  139.5825  168.4213 C.ar    1  UNL1        0.0333
     18 C         142.0342  140.0156  167.1480 C.ar    1  UNL1        0.1555
     19 F         142.8265  140.0904  165.8766 F       1  UNL1       -0.2028
     20 C         138.5055  143.3839  163.3349 C.3     1  UNL1        0.1198
     21 C         139.0273  143.6115  161.9470 C.3     1  UNL1        0.0541
     22 C         139.6902  144.9112  161.5987 C.3     1  UNL1        0.1280
     23 O         138.9420  146.2014  161.7594 O.3     1  UNL1       -0.3830
     24 H         138.0508  146.0186  162.0958 H       1  UNL1        0.2104
     25 C         141.1011  144.9207  161.0898 C.3     1  UNL1        0.0982
     26 C         141.9724  145.3366  163.5019 C.3     1  UNL1        0.0859
     27 N         142.2433  145.0797  162.0490 N.3     1  UNL1       -0.2943
     28 H         142.7915  144.2210  161.9990 H       1  UNL1        0.1234
@<TRIPOS>BOND
     1    26    27    1
     2    27    25    1
     3    25    22    1
     4    22    23    1
     5    22    21    1
     6    21    20    1
     7    20     1    1
     8     1     2    1
     9     2     3   ar
    10     3     4   ar
    11     4     5   ar
    12     5     6   ar
    13     6     7   ar
    14     7     8    1
    15     8    12    1
    16    12    13   ar
    17    13    14   ar
    18    14    15    1
    19    14    16   ar
    20    16    17   ar
    21    17    18   ar
    22    18    19    1
    23     8     9    1
    24     9    10    2
    25     9    11    2
    26     9     1    1
    27     7     2   ar
    28    18    12   ar
    29    27    28    1
    30    23    24    1
@<TRIPOS>MOLECULE
*****
 28 30 0 0 0
SMALL
GASTEIGER

@<TRIPOS>ATOM
      1 N         138.8076  140.3128  164.7997 N.pl3   1  UNL1       -0.1766
      2 C         138.6217  141.7823  164.5628 C.ar    1  UNL1        0.0853
      3 C         137.8484  142.5418  163.5260 C.ar    1  UNL1        0.0175
      4 C         137.8481  144.0417  163.5400 C.ar    1  UNL1        0.0014
      5 C         138.6211  144.7821  164.5909 C.ar    1  UNL1        0.0014
      6 C         139.3943  144.0225  165.6278 C.ar    1  UNL1        0.0179
      7 C         139.3946  142.5226  165.6137 C.ar    1  UNL1        0.0898
      8 N         140.0583  141.5107  166.5001 N.pl3   1  UNL1       -0.1533
      9 S         139.6955  140.1449  165.9970 S.O2    1  UNL1        0.1340
     10 O         139.5101  138.6801  165.7327 O.2     1  UNL1       -0.1342
     11 O         140.5446  139.6709  167.1391 O.2     1  UNL1       -0.1342
     12 C         140.9314  141.8117  167.6820 C.ar    1  UNL1        0.1045
     13 C         140.3369  141.8720  169.0578 C.ar    1  UNL1        0.0485
     14 C         141.2100  142.1731  170.2397 C.ar    1  UNL1        0.1416
     15 F         140.6154  142.2334  171.6155 F       1  UNL1       -0.2041
     16 C         142.6778  142.4138  170.0459 C.ar    1  UNL1        0.0320
     17 C         143.2725  142.3535  168.6701 C.ar    1  UNL1        0.0333
     18 C         142.3993  142.0525  167.4882 C.ar    1  UNL1        0.1555
     19 F         142.9940  141.9922  166.1124 F       1  UNL1       -0.2028
     20 C         138.2105  139.2056  163.9827 C.3     1  UNL1        0.1198
     21 C         138.3782  139.1989  162.4921 C.3     1  UNL1        0.0541
     22 C         139.6435  138.6728  161.8821 C.3     1  UNL1        0.1280
     23 O         140.0888  139.1650  160.5369 O.3     1  UNL1       -0.3830
     24 H         139.4508  139.8147  160.2029 H       1  UNL1        0.2104
     25 C         140.4635  137.6545  162.6173 C.3     1  UNL1        0.0982
     26 C         143.0085  138.0896  162.3270 C.3     1  UNL1        0.0859
     27 N         141.7997  137.2368  162.0785 N.3     1  UNL1       -0.2943
     28 H         142.0017  136.3178  162.4723 H       1  UNL1        0.1234
@<TRIPOS>BOND
     1    26    27    1
     2    27    25    1
     3    25    22    1
     4    22    23    1
     5    22    21    1
     6    21    20    1
     7    20     1    1
     8     1     2    1
     9     2     3   ar
    10     3     4   ar
    11     4     5   ar
    12     5     6   ar
    13     6     7   ar
    14     7     8    1
    15     8    12    1
    16    12    13   ar
    17    13    14   ar
    18    14    15    1
    19    14    16   ar
    20    16    17   ar
    21    17    18   ar
    22    18    19    1
    23     8     9    1
    24     9    10    2
    25     9    11    2
    26     9     1    1
    27     7     2   ar
    28    18    12   ar
    29    27    28    1
    30    23    24    1
@<TRIPOS>MOLECULE
*****
 28 30 0 0 0
SMALL
GASTEIGER

@<TRIPOS>ATOM
      1 N         141.5302  140.9580  163.5118 N.pl3   1  UNL1       -0.1766
      2 C         140.2213  141.6405  163.2454 C.ar    1  UNL1        0.0853
      3 C         139.5240  142.0114  161.9702 C.ar    1  UNL1        0.0175
      4 C         138.1938  142.7029  162.0166 C.ar    1  UNL1        0.0014
      5 C         137.5609  143.0236  163.3381 C.ar    1  UNL1        0.0014
      6 C         138.2581  142.6527  164.6134 C.ar    1  UNL1        0.0179
      7 C         139.5884  141.9611  164.5670 C.ar    1  UNL1        0.0898
      8 N         140.5061  141.4768  165.6501 N.pl3   1  UNL1       -0.1533
      9 S         141.7062  140.8568  164.9980 S.O2    1  UNL1        0.1340
     10 O         142.9997  140.1864  164.6410 O.2     1  UNL1       -0.1342
     11 O         142.1526  140.6155  166.4096 O.2     1  UNL1       -0.1342
     12 C         140.2658  141.5922  167.1263 C.ar    1  UNL1        0.1045
     13 C         140.6333  142.8538  167.8496 C.ar    1  UNL1        0.0485
     14 C         140.3930  142.9692  169.3257 C.ar    1  UNL1        0.1416
     15 F         140.7605  144.2309  170.0490 F       1  UNL1       -0.2041
     16 C         139.7852  141.8230  170.0786 C.ar    1  UNL1        0.0320
     17 C         139.4177  140.5613  169.3553 C.ar    1  UNL1        0.0333
     18 C         139.6580  140.4459  167.8791 C.ar    1  UNL1        0.1555
     19 F         139.2905  139.1843  167.1558 F       1  UNL1       -0.2028
     20 C         142.4939  140.4635  162.4742 C.3     1  UNL1        0.1198
     21 C         143.0966  141.4239  161.4920 C.3     1  UNL1        0.0541
     22 C         143.9536  142.5548  161.9783 C.3     1  UNL1        0.1280
     23 O         143.5823  143.9711  161.6523 O.3     1  UNL1       -0.3830
     24 H         142.7682  143.9787  161.1249 H       1  UNL1        0.2104
     25 C         145.1819  142.2695  162.7906 C.3     1  UNL1        0.0982
     26 C         144.4902  143.4268  165.0115 C.3     1  UNL1        0.0859
     27 N         145.1060  142.2655  164.2887 N.3     1  UNL1       -0.2943
     28 H         144.5733  141.4373  164.5543 H       1  UNL1        0.1234
@<TRIPOS>BOND
     1    26    27    1
     2    27    25    1
     3    25    22    1
     4    22    23    1
     5    22    21    1
     6    21    20    1
     7    20     1    1
     8     1     2    1
     9     2     3   ar
    10     3     4   ar
    11     4     5   ar
    12     5     6   ar
    13     6     7   ar
    14     7     8    1
    15     8    12    1
    16    12    13   ar
    17    13    14   ar
    18    14    15    1
    19    14    16   ar
    20    16    17   ar
    21    17    18   ar
    22    18    19    1
    23     8     9    1
    24     9    10    2
    25     9    11    2
    26     9     1    1
    27     7     2   ar
    28    18    12   ar
    29    27    28    1
    30    23    24    1
