@<TRIPOS>MOLECULE
*****
 27 31 0 0 0
SMALL
GASTEIGER

@<TRIPOS>ATOM
      1 C         142.0831  140.9869  169.0568 C.2     1  UNL1        0.1222
      2 C         140.9047  141.8821  169.3015 C.2     1  UNL1        0.0328
      3 C         140.3455  142.7087  168.1816 C.2     1  UNL1        0.0037
      4 C         140.9647  142.6401  166.8172 C.2     1  UNL1        0.0114
      5 C         140.6335  143.3330  165.5286 C.2     1  UNL1       -0.0025
      6 C         141.6073  142.8659  164.4876 C.2     1  UNL1        0.0920
      7 N         142.5403  141.8845  165.1327 N.2     1  UNL1       -0.2505
      8 C         142.1431  141.7449  166.5725 C.2     1  UNL1        0.0660
      9 C         142.7023  140.9183  167.6924 C.3     1  UNL1        0.1095
     10 C         141.5186  143.3947  163.0867 C.3     1  UNL1        0.1939
     11 N         140.4561  144.3906  162.7268 N.am    1  UNL1       -0.2562
     12 C         139.4823  144.8576  163.7678 C.3     1  UNL1        0.1003
     13 C         139.5711  144.3288  165.1688 C.3     1  UNL1        0.0493
     14 C         140.3674  144.9194  161.3259 C.2     1  UNL1        0.2546
     15 O         139.3049  145.9152  160.9661 O.2     1  UNL1       -0.2697
     16 C         141.3412  144.4524  160.2849 C.ar    1  UNL1        0.1008
     17 C         141.2525  144.9811  158.8840 C.ar    1  UNL1        0.1442
     18 C         142.2262  144.5141  157.8430 C.ar    1  UNL1        0.0371
     19 C         143.2886  143.5183  158.2029 C.ar    1  UNL1        0.0044
     20 C         143.3774  142.9895  159.6039 C.ar    1  UNL1        0.0149
     21 C         142.4036  143.4565  160.6449 C.ar    1  UNL1        0.0566
     22 N         142.4923  142.9277  162.0458 N.pl3   1  UNL1       -0.2867
     23 C         143.5548  141.9319  162.4056 C.3     1  UNL1        0.1140
     24 C         142.6698  138.6649  170.0637 C.3     1  UNL1        0.2520
     25 O         142.6423  140.1603  170.1767 O.2     1  UNL1       -0.4753
     26 O         140.1900  145.9770  158.5242 O.3     1  UNL1       -0.4712
     27 C         139.9867  146.3720  157.0915 C.3     1  UNL1        0.2525
@<TRIPOS>BOND
     1    24    25    1
     2    25     1    1
     3     1     2    2
     4     2     3    1
     5     3     4    2
     6     4     5    1
     7     5     6    2
     8     6     7    1
     9     7     8    2
    10     8     9    1
    11     6    10    1
    12    10    11    1
    13    11    12    1
    14    12    13    1
    15    11    14   am
    16    14    15    2
    17    14    16    1
    18    16    17   ar
    19    17    26    1
    20    26    27    1
    21    17    18   ar
    22    18    19   ar
    23    19    20   ar
    24    20    21   ar
    25    21    22    1
    26    22    23    1
    27     9     1    1
    28    10    22    1
    29     8     4    1
    30    21    16   ar
    31    13     5    1
@<TRIPOS>MOLECULE
*****
 27 31 0 0 0
SMALL
GASTEIGER

@<TRIPOS>ATOM
      1 C         141.5194  139.8123  168.9529 C.2     1  UNL1        0.1222
      2 C         140.0643  140.1719  168.8963 C.2     1  UNL1        0.0328
      3 C         139.3418  140.1702  167.5817 C.2     1  UNL1        0.0037
      4 C         140.0745  139.8088  166.3237 C.2     1  UNL1        0.0114
      5 C         139.6305  139.7205  164.8937 C.2     1  UNL1       -0.0025
      6 C         140.8113  139.3063  164.0664 C.2     1  UNL1        0.0920
      7 N         141.9850  139.1386  164.9852 N.2     1  UNL1       -0.2505
      8 C         141.5296  139.4492  166.3804 C.2     1  UNL1        0.0660
      9 C         142.2521  139.4509  167.6949 C.3     1  UNL1        0.1095
     10 C         140.6651  139.1354  162.5834 C.3     1  UNL1        0.1939
     11 N         139.3381  139.3787  161.9276 N.am    1  UNL1       -0.2562
     12 C         138.1574  139.7929  162.7548 C.3     1  UNL1        0.1003
     13 C         138.3036  139.9638  164.2379 C.3     1  UNL1        0.0493
     14 C         139.1919  139.2078  160.4445 C.2     1  UNL1        0.2546
     15 O         137.8650  139.4510  159.7888 O.2     1  UNL1       -0.2697
     16 C         140.3727  138.7936  159.6173 C.ar    1  UNL1        0.1008
     17 C         140.2265  138.6226  158.1343 C.ar    1  UNL1        0.1442
     18 C         141.4072  138.2085  157.3070 C.ar    1  UNL1        0.0371
     19 C         142.7341  137.9652  157.9628 C.ar    1  UNL1        0.0044
     20 C         142.8803  138.1361  159.4459 C.ar    1  UNL1        0.0149
     21 C         141.6996  138.5503  160.2732 C.ar    1  UNL1        0.0566
     22 N         141.8458  138.7212  161.7562 N.pl3   1  UNL1       -0.2867
     23 C         143.1727  138.4780  162.4120 C.3     1  UNL1        0.1140
     24 C         142.0831  140.9709  171.2089 C.3     1  UNL1        0.2520
     25 O         142.2418  139.8141  170.2675 O.2     1  UNL1       -0.4753
     26 O         138.8996  138.8659  157.4785 O.3     1  UNL1       -0.4712
     27 C         138.7786  139.8872  156.3866 C.3     1  UNL1        0.2525
@<TRIPOS>BOND
     1    24    25    1
     2    25     1    1
     3     1     2    2
     4     2     3    1
     5     3     4    2
     6     4     5    1
     7     5     6    2
     8     6     7    1
     9     7     8    2
    10     8     9    1
    11     6    10    1
    12    10    11    1
    13    11    12    1
    14    12    13    1
    15    11    14   am
    16    14    15    2
    17    14    16    1
    18    16    17   ar
    19    17    26    1
    20    26    27    1
    21    17    18   ar
    22    18    19   ar
    23    19    20   ar
    24    20    21   ar
    25    21    22    1
    26    22    23    1
    27     9     1    1
    28    10    22    1
    29     8     4    1
    30    21    16   ar
    31    13     5    1
@<TRIPOS>MOLECULE
*****
 27 31 0 0 0
SMALL
GASTEIGER

@<TRIPOS>ATOM
      1 C         140.4111  141.4118  169.3090 C.2     1  UNL1        0.1222
      2 C         139.6464  140.1597  168.9971 C.2     1  UNL1        0.0328
      3 C         139.2070  139.8800  167.5904 C.2     1  UNL1        0.0037
      4 C         139.5324  140.8525  166.4957 C.2     1  UNL1        0.0114
      5 C         139.2335  140.8460  165.0258 C.2     1  UNL1       -0.0025
      6 C         139.8136  142.0941  164.4293 C.2     1  UNL1        0.0920
      7 N         140.4709  142.8720  165.5305 N.2     1  UNL1       -0.2505
      8 C         140.2971  142.1046  166.8076 C.2     1  UNL1        0.0660
      9 C         140.7365  142.3843  168.2143 C.3     1  UNL1        0.1095
     10 C         139.6682  142.3610  162.9604 C.3     1  UNL1        0.1939
     11 N         138.9428  141.3797  162.0880 N.am    1  UNL1       -0.2562
     12 C         138.3627  140.1316  162.6845 C.3     1  UNL1        0.1003
     13 C         138.5081  139.8647  164.1534 C.3     1  UNL1        0.0493
     14 C         138.7974  141.6466  160.6191 C.2     1  UNL1        0.2546
     15 O         138.0720  140.6654  159.7467 O.2     1  UNL1       -0.2697
     16 C         139.3774  142.8947  160.0226 C.ar    1  UNL1        0.1008
     17 C         139.2321  143.1616  158.5537 C.ar    1  UNL1        0.1442
     18 C         139.8121  144.4098  157.9572 C.ar    1  UNL1        0.0371
     19 C         140.5374  145.3909  158.8296 C.ar    1  UNL1        0.0044
     20 C         140.6828  145.1240  160.2985 C.ar    1  UNL1        0.0149
     21 C         140.1028  143.8759  160.8950 C.ar    1  UNL1        0.0566
     22 N         140.2482  143.6090  162.3639 N.pl3   1  UNL1       -0.2867
     23 C         140.9736  144.5902  163.2363 C.3     1  UNL1        0.1140
     24 C         142.2533  142.1480  170.9865 C.3     1  UNL1        0.2520
     25 O         140.8504  141.6915  170.7157 O.2     1  UNL1       -0.4753
     26 O         138.5067  142.1804  157.6813 O.3     1  UNL1       -0.4712
     27 C         137.3737  142.6428  156.8138 C.3     1  UNL1        0.2525
@<TRIPOS>BOND
     1    24    25    1
     2    25     1    1
     3     1     2    2
     4     2     3    1
     5     3     4    2
     6     4     5    1
     7     5     6    2
     8     6     7    1
     9     7     8    2
    10     8     9    1
    11     6    10    1
    12    10    11    1
    13    11    12    1
    14    12    13    1
    15    11    14   am
    16    14    15    2
    17    14    16    1
    18    16    17   ar
    19    17    26    1
    20    26    27    1
    21    17    18   ar
    22    18    19   ar
    23    19    20   ar
    24    20    21   ar
    25    21    22    1
    26    22    23    1
    27     9     1    1
    28    10    22    1
    29     8     4    1
    30    21    16   ar
    31    13     5    1
@<TRIPOS>MOLECULE
*****
 27 31 0 0 0
SMALL
GASTEIGER

@<TRIPOS>ATOM
      1 C         139.3638  140.0062  167.9088 C.2     1  UNL1        0.1222
      2 C         138.3981  139.0277  167.3089 C.2     1  UNL1        0.0328
      3 C         138.0557  139.1099  165.8508 C.2     1  UNL1        0.0037
      4 C         138.6790  140.1706  164.9927 C.2     1  UNL1        0.0114
      5 C         138.5348  140.4958  163.5355 C.2     1  UNL1       -0.0025
      6 C         139.4113  141.6753  163.2348 C.2     1  UNL1        0.0920
      7 N         140.0973  142.0791  164.5062 N.2     1  UNL1       -0.2505
      8 C         139.6446  141.1491  165.5926 C.2     1  UNL1        0.0660
      9 C         139.9870  141.0669  167.0507 C.3     1  UNL1        0.1095
     10 C         139.4717  142.2293  161.8422 C.3     1  UNL1        0.1939
     11 N         138.6554  141.6037  160.7501 N.am    1  UNL1       -0.2562
     12 C         137.7788  140.4242  161.0508 C.3     1  UNL1        0.1003
     13 C         137.7185  139.8702  162.4435 C.3     1  UNL1        0.0493
     14 C         138.7157  142.1577  159.3575 C.2     1  UNL1        0.2546
     15 O         137.8994  141.5321  158.2655 O.2     1  UNL1       -0.2697
     16 C         139.5923  143.3372  159.0568 C.ar    1  UNL1        0.1008
     17 C         139.6526  143.8912  157.6642 C.ar    1  UNL1        0.1442
     18 C         140.5292  145.0707  157.3635 C.ar    1  UNL1        0.0371
     19 C         141.3453  145.6962  158.4555 C.ar    1  UNL1        0.0044
     20 C         141.2850  145.1422  159.8482 C.ar    1  UNL1        0.0149
     21 C         140.4085  143.9627  160.1489 C.ar    1  UNL1        0.0566
     22 N         140.3482  143.4087  161.5415 N.pl3   1  UNL1       -0.2867
     23 C         141.1644  144.0343  162.6335 C.3     1  UNL1        0.1140
     24 C         140.0307  141.1723  170.1327 C.3     1  UNL1        0.2520
     25 O         139.7062  139.9240  169.3669 O.2     1  UNL1       -0.4753
     26 O         138.8363  143.2656  156.5722 O.3     1  UNL1       -0.4712
     27 C         138.2540  144.1217  155.4869 C.3     1  UNL1        0.2525
@<TRIPOS>BOND
     1    24    25    1
     2    25     1    1
     3     1     2    2
     4     2     3    1
     5     3     4    2
     6     4     5    1
     7     5     6    2
     8     6     7    1
     9     7     8    2
    10     8     9    1
    11     6    10    1
    12    10    11    1
    13    11    12    1
    14    12    13    1
    15    11    14   am
    16    14    15    2
    17    14    16    1
    18    16    17   ar
    19    17    26    1
    20    26    27    1
    21    17    18   ar
    22    18    19   ar
    23    19    20   ar
    24    20    21   ar
    25    21    22    1
    26    22    23    1
    27     9     1    1
    28    10    22    1
    29     8     4    1
    30    21    16   ar
    31    13     5    1
@<TRIPOS>MOLECULE
*****
 27 31 0 0 0
SMALL
GASTEIGER

@<TRIPOS>ATOM
      1 C         140.3601  139.8827  169.1301 C.2     1  UNL1        0.1222
      2 C         141.8544  139.7616  169.1787 C.2     1  UNL1        0.0328
      3 C         142.6360  139.6077  167.9078 C.2     1  UNL1        0.0037
      4 C         141.9235  139.5748  166.5883 C.2     1  UNL1        0.0114
      5 C         142.4231  139.4348  165.1809 C.2     1  UNL1       -0.0025
      6 C         141.2376  139.4694  164.2625 C.2     1  UNL1        0.0920
      7 N         140.0053  139.6307  165.1023 N.2     1  UNL1       -0.2505
      8 C         140.4292  139.6959  166.5397 C.2     1  UNL1        0.0660
      9 C         139.6475  139.8498  167.8106 C.3     1  UNL1        0.1095
     10 C         141.4335  139.3495  162.7802 C.3     1  UNL1        0.1939
     11 N         142.8149  139.1950  162.2162 N.am    1  UNL1       -0.2562
     12 C         144.0004  139.1604  163.1346 C.3     1  UNL1        0.1003
     13 C         143.8045  139.2803  164.6170 C.3     1  UNL1        0.0493
     14 C         143.0107  139.0751  160.7339 C.2     1  UNL1        0.2546
     15 O         144.3921  138.9206  160.1700 O.2     1  UNL1       -0.2697
     16 C         141.8252  139.1096  159.8155 C.ar    1  UNL1        0.1008
     17 C         142.0211  138.9897  158.3332 C.ar    1  UNL1        0.1442
     18 C         140.8356  139.0243  157.4148 C.ar    1  UNL1        0.0371
     19 C         139.4543  139.1788  157.9788 C.ar    1  UNL1        0.0044
     20 C         139.2584  139.2987  159.4612 C.ar    1  UNL1        0.0149
     21 C         140.4439  139.2641  160.3796 C.ar    1  UNL1        0.0566
     22 N         140.2481  139.3840  161.8619 N.pl3   1  UNL1       -0.2867
     23 C         138.8667  139.5385  162.4258 C.3     1  UNL1        0.1140
     24 C         138.0791  140.0598  170.3613 C.3     1  UNL1        0.2520
     25 O         139.5784  140.0366  170.4011 O.2     1  UNL1       -0.4753
     26 O         143.4024  138.8352  157.7693 O.3     1  UNL1       -0.4712
     27 C         143.8775  139.7570  156.6855 C.3     1  UNL1        0.2525
@<TRIPOS>BOND
     1    24    25    1
     2    25     1    1
     3     1     2    2
     4     2     3    1
     5     3     4    2
     6     4     5    1
     7     5     6    2
     8     6     7    1
     9     7     8    2
    10     8     9    1
    11     6    10    1
    12    10    11    1
    13    11    12    1
    14    12    13    1
    15    11    14   am
    16    14    15    2
    17    14    16    1
    18    16    17   ar
    19    17    26    1
    20    26    27    1
    21    17    18   ar
    22    18    19   ar
    23    19    20   ar
    24    20    21   ar
    25    21    22    1
    26    22    23    1
    27     9     1    1
    28    10    22    1
    29     8     4    1
    30    21    16   ar
    31    13     5    1
@<TRIPOS>MOLECULE
*****
 27 31 0 0 0
SMALL
GASTEIGER

@<TRIPOS>ATOM
      1 C         143.0467  141.9647  168.3285 C.2     1  UNL1        0.1222
      2 C         142.6986  140.5074  168.3988 C.2     1  UNL1        0.0328
      3 C         142.6480  139.6870  167.1440 C.2     1  UNL1        0.0037
      4 C         142.9455  140.3240  165.8190 C.2     1  UNL1        0.0114
      5 C         142.9736  139.7730  164.4242 C.2     1  UNL1       -0.0025
      6 C         143.3390  140.8898  163.4918 C.2     1  UNL1        0.0920
      7 N         143.5369  142.1310  164.3104 N.2     1  UNL1       -0.2505
      8 C         143.2937  141.7813  165.7488 C.2     1  UNL1        0.0660
      9 C         143.3443  142.6017  167.0035 C.3     1  UNL1        0.1095
     10 C         143.4444  140.6322  162.0179 C.3     1  UNL1        0.1939
     11 N         143.1843  139.2577  161.4762 N.am    1  UNL1       -0.2562
     12 C         142.8189  138.1409  162.4086 C.3     1  UNL1        0.1003
     13 C         142.7135  138.3986  163.8826 C.3     1  UNL1        0.0493
     14 C         143.2897  139.0001  160.0023 C.2     1  UNL1        0.2546
     15 O         143.0297  137.6257  159.4607 O.2     1  UNL1       -0.2697
     16 C         143.6552  140.1169  159.0699 C.ar    1  UNL1        0.1008
     17 C         143.7606  139.8593  157.5960 C.ar    1  UNL1        0.1442
     18 C         144.1261  140.9760  156.6637 C.ar    1  UNL1        0.0371
     19 C         144.3861  142.3504  157.2053 C.ar    1  UNL1        0.0044
     20 C         144.2807  142.6081  158.6793 C.ar    1  UNL1        0.0149
     21 C         143.9152  141.4913  159.6117 C.ar    1  UNL1        0.0566
     22 N         143.8098  141.7489  161.0856 N.pl3   1  UNL1       -0.2867
     23 C         144.0699  143.1233  161.6272 C.3     1  UNL1        0.1140
     24 C         141.8255  143.1738  170.2770 C.3     1  UNL1        0.2520
     25 O         143.0973  142.7851  169.5833 O.2     1  UNL1       -0.4753
     26 O         143.5005  138.4848  157.0544 O.3     1  UNL1       -0.4712
     27 C         142.4647  138.2823  155.9886 C.3     1  UNL1        0.2525
@<TRIPOS>BOND
     1    24    25    1
     2    25     1    1
     3     1     2    2
     4     2     3    1
     5     3     4    2
     6     4     5    1
     7     5     6    2
     8     6     7    1
     9     7     8    2
    10     8     9    1
    11     6    10    1
    12    10    11    1
    13    11    12    1
    14    12    13    1
    15    11    14   am
    16    14    15    2
    17    14    16    1
    18    16    17   ar
    19    17    26    1
    20    26    27    1
    21    17    18   ar
    22    18    19   ar
    23    19    20   ar
    24    20    21   ar
    25    21    22    1
    26    22    23    1
    27     9     1    1
    28    10    22    1
    29     8     4    1
    30    21    16   ar
    31    13     5    1
@<TRIPOS>MOLECULE
*****
 27 31 0 0 0
SMALL
GASTEIGER

@<TRIPOS>ATOM
      1 C         139.8522  140.5461  168.5424 C.2     1  UNL1        0.1222
      2 C         140.3768  141.9484  168.6334 C.2     1  UNL1        0.0328
      3 C         140.4731  142.7948  167.3987 C.2     1  UNL1        0.0037
      4 C         140.0447  142.2389  166.0731 C.2     1  UNL1        0.0114
      5 C         140.0244  142.8317  164.6953 C.2     1  UNL1       -0.0025
      6 C         139.4872  141.7958  163.7528 C.2     1  UNL1        0.0920
      7 N         139.1755  140.5627  164.5480 N.2     1  UNL1       -0.2505
      8 C         139.5201  140.8366  165.9821 C.2     1  UNL1        0.0660
      9 C         139.4238  139.9902  167.2167 C.3     1  UNL1        0.1095
     10 C         139.3513  142.1091  162.2922 C.3     1  UNL1        0.1939
     11 N         139.7526  143.4585  161.7741 N.am    1  UNL1       -0.2562
     12 C         140.2898  144.4944  162.7166 C.3     1  UNL1        0.1003
     13 C         140.4256  144.1810  164.1773 C.3     1  UNL1        0.0493
     14 C         139.6167  143.7718  160.3135 C.2     1  UNL1        0.2546
     15 O         140.0180  145.1211  159.7955 O.2     1  UNL1       -0.2697
     16 C         139.0795  142.7359  159.3710 C.ar    1  UNL1        0.1008
     17 C         138.9437  143.0493  157.9104 C.ar    1  UNL1        0.1442
     18 C         138.4065  142.0133  156.9679 C.ar    1  UNL1        0.0371
     19 C         138.0053  140.6641  157.4860 C.ar    1  UNL1        0.0044
     20 C         138.1411  140.3507  158.9467 C.ar    1  UNL1        0.0149
     21 C         138.6783  141.3866  159.8892 C.ar    1  UNL1        0.0566
     22 N         138.8142  141.0733  161.3498 N.pl3   1  UNL1       -0.2867
     23 C         138.4129  139.7240  161.8678 C.3     1  UNL1        0.1140
     24 C         140.4454  140.1308  171.0375 C.3     1  UNL1        0.2520
     25 O         139.7560  139.6997  169.7770 O.2     1  UNL1       -0.4753
     26 O         139.3449  144.3986  157.3924 O.3     1  UNL1       -0.4712
     27 C         140.2970  144.5060  156.2382 C.3     1  UNL1        0.2525
@<TRIPOS>BOND
     1    24    25    1
     2    25     1    1
     3     1     2    2
     4     2     3    1
     5     3     4    2
     6     4     5    1
     7     5     6    2
     8     6     7    1
     9     7     8    2
    10     8     9    1
    11     6    10    1
    12    10    11    1
    13    11    12    1
    14    12    13    1
    15    11    14   am
    16    14    15    2
    17    14    16    1
    18    16    17   ar
    19    17    26    1
    20    26    27    1
    21    17    18   ar
    22    18    19   ar
    23    19    20   ar
    24    20    21   ar
    25    21    22    1
    26    22    23    1
    27     9     1    1
    28    10    22    1
    29     8     4    1
    30    21    16   ar
    31    13     5    1
@<TRIPOS>MOLECULE
*****
 27 31 0 0 0
SMALL
GASTEIGER

@<TRIPOS>ATOM
      1 C         141.6497  135.3195  155.1276 C.2     1  UNL1        0.1222
      2 C         141.2765  136.5363  154.3338 C.2     1  UNL1        0.0328
      3 C         141.4709  137.9031  154.9203 C.2     1  UNL1        0.0037
      4 C         142.0384  138.0532  156.3006 C.2     1  UNL1        0.0114
      5 C         142.3414  139.2621  157.1353 C.2     1  UNL1       -0.0025
      6 C         142.9019  138.7925  158.4450 C.2     1  UNL1        0.0920
      7 N         142.9453  137.2933  158.4198 N.2     1  UNL1       -0.2505
      8 C         142.4116  136.8364  157.0944 C.2     1  UNL1        0.0660
      9 C         142.2172  135.4696  156.5079 C.3     1  UNL1        0.1095
     10 C         143.3003  139.7906  159.4914 C.3     1  UNL1        0.1939
     11 N         143.1383  141.2585  159.2281 N.am    1  UNL1       -0.2562
     12 C         142.5778  141.7281  157.9183 C.3     1  UNL1        0.1003
     13 C         142.1793  140.7298  156.8720 C.3     1  UNL1        0.0493
     14 C         143.5367  142.2566  160.2744 C.2     1  UNL1        0.2546
     15 O         143.3747  143.7244  160.0111 O.2     1  UNL1       -0.2697
     16 C         144.0972  141.7870  161.5842 C.ar    1  UNL1        0.1008
     17 C         144.4956  142.7852  162.6305 C.ar    1  UNL1        0.1442
     18 C         145.0561  142.3156  163.9402 C.ar    1  UNL1        0.0371
     19 C         145.2181  140.8479  164.2035 C.ar    1  UNL1        0.0044
     20 C         144.8197  139.8496  163.1571 C.ar    1  UNL1        0.0149
     21 C         144.2592  140.3192  161.8474 C.ar    1  UNL1        0.0566
     22 N         143.8607  139.3211  160.8010 N.pl3   1  UNL1       -0.2867
     23 C         144.0228  137.8533  161.0644 C.3     1  UNL1        0.1140
     24 C         141.9889  132.7469  155.2562 C.3     1  UNL1        0.2520
     25 O         141.4554  133.9527  154.5411 O.2     1  UNL1       -0.4753
     26 O         144.3336  144.2530  162.3671 O.3     1  UNL1       -0.4712
     27 C         143.5459  145.1033  163.3192 C.3     1  UNL1        0.2525
@<TRIPOS>BOND
     1    24    25    1
     2    25     1    1
     3     1     2    2
     4     2     3    1
     5     3     4    2
     6     4     5    1
     7     5     6    2
     8     6     7    1
     9     7     8    2
    10     8     9    1
    11     6    10    1
    12    10    11    1
    13    11    12    1
    14    12    13    1
    15    11    14   am
    16    14    15    2
    17    14    16    1
    18    16    17   ar
    19    17    26    1
    20    26    27    1
    21    17    18   ar
    22    18    19   ar
    23    19    20   ar
    24    20    21   ar
    25    21    22    1
    26    22    23    1
    27     9     1    1
    28    10    22    1
    29     8     4    1
    30    21    16   ar
    31    13     5    1
@<TRIPOS>MOLECULE
*****
 27 31 0 0 0
SMALL
GASTEIGER

@<TRIPOS>ATOM
      1 C         141.5659  141.4666  169.3452 C.2     1  UNL1        0.1222
      2 C         142.1959  140.1071  169.2756 C.2     1  UNL1        0.0328
      3 C         142.6893  139.5754  167.9627 C.2     1  UNL1        0.0037
      4 C         142.5528  140.4032  166.7193 C.2     1  UNL1        0.0114
      5 C         142.9434  140.1458  165.2941 C.2     1  UNL1       -0.0025
      6 C         142.5548  141.3462  164.4829 C.2     1  UNL1        0.0920
      7 N         141.9240  142.3455  165.4067 N.2     1  UNL1       -0.2505
      8 C         141.9228  141.7627  166.7889 C.2     1  UNL1        0.0660
      9 C         141.4294  142.2944  168.1018 C.3     1  UNL1        0.1095
     10 C         142.8255  141.3741  163.0078 C.3     1  UNL1        0.1939
     11 N         143.4849  140.2017  162.3439 N.am    1  UNL1       -0.2562
     12 C         143.8735  139.0013  163.1551 C.3     1  UNL1        0.1003
     13 C         143.6027  138.9734  164.6303 C.3     1  UNL1        0.0493
     14 C         143.7557  140.2296  160.8688 C.2     1  UNL1        0.2546
     15 O         144.4150  139.0572  160.2050 O.2     1  UNL1       -0.2697
     16 C         143.3671  141.4300  160.0576 C.ar    1  UNL1        0.1008
     17 C         143.6378  141.4580  158.5825 C.ar    1  UNL1        0.1442
     18 C         143.2493  142.6584  157.7712 C.ar    1  UNL1        0.0371
     19 C         142.5900  143.8307  158.4351 C.ar    1  UNL1        0.0044
     20 C         142.3192  143.8028  159.9103 C.ar    1  UNL1        0.0149
     21 C         142.7078  142.6024  160.7215 C.ar    1  UNL1        0.0566
     22 N         142.4370  142.5744  162.1966 N.pl3   1  UNL1       -0.2867
     23 C         141.7777  143.7469  162.8604 C.3     1  UNL1        0.1140
     24 C         139.8288  142.8353  170.7087 C.3     1  UNL1        0.2520
     25 O         141.0725  141.9982  170.6582 O.2     1  UNL1       -0.4753
     26 O         144.2972  140.2855  157.9187 O.3     1  UNL1       -0.4712
     27 C         145.1363  140.4921  156.6927 C.3     1  UNL1        0.2525
@<TRIPOS>BOND
     1    24    25    1
     2    25     1    1
     3     1     2    2
     4     2     3    1
     5     3     4    2
     6     4     5    1
     7     5     6    2
     8     6     7    1
     9     7     8    2
    10     8     9    1
    11     6    10    1
    12    10    11    1
    13    11    12    1
    14    12    13    1
    15    11    14   am
    16    14    15    2
    17    14    16    1
    18    16    17   ar
    19    17    26    1
    20    26    27    1
    21    17    18   ar
    22    18    19   ar
    23    19    20   ar
    24    20    21   ar
    25    21    22    1
    26    22    23    1
    27     9     1    1
    28    10    22    1
    29     8     4    1
    30    21    16   ar
    31    13     5    1
