@<TRIPOS>MOLECULE
*****
 37 41 0 0 0
SMALL
GASTEIGER

@<TRIPOS>ATOM
      1 C         138.3228  142.9145  161.3411 C.ar    1  UNL1        0.1981
      2 N         138.3724  142.5735  159.8812 N.ar    1  UNL1       -0.2138
      3 C         139.3560  143.4952  159.2231 C.ar    1  UNL1        0.0999
      4 C         139.8154  143.6228  157.8009 C.ar    1  UNL1        0.0207
      5 C         140.8329  144.6612  157.4318 C.ar    1  UNL1        0.0016
      6 C         141.3911  145.5720  158.4849 C.ar    1  UNL1        0.0016
      7 C         140.9317  145.4443  159.9071 C.ar    1  UNL1        0.0188
      8 C         139.9141  144.4059  160.2762 C.ar    1  UNL1        0.0801
      9 N         139.2756  144.0471  161.5852 N.ar    1  UNL1       -0.2956
     10 N         137.4700  142.2413  162.3753 N.pl3   1  UNL1       -0.3058
     11 H         136.6037  142.6335  162.6302 H       1  UNL1        0.1495
     12 N         138.8715  138.4292  164.3128 N.3     1  UNL1       -0.2723
     13 C         138.7000  139.6705  165.1372 C.3     1  UNL1        0.0738
     14 C         138.2328  140.9413  164.4914 C.3     1  UNL1        0.0369
     15 C         137.9371  140.9707  163.0211 C.3     1  UNL1        0.0745
     16 C         138.1086  139.7293  162.1967 C.3     1  UNL1        0.0369
     17 C         138.5758  138.4586  162.8425 C.3     1  UNL1        0.0738
     18 C         139.3386  137.1585  164.9586 C.3     1  UNL1        0.0768
     19 C         140.7433  136.6792  164.7415 C.3     1  UNL1        0.0437
     20 C         144.0166  139.6355  163.8492 C.ar    1  UNL1        0.0684
     21 C         143.1571  139.1099  162.7378 C.ar    1  UNL1        0.0100
     22 C         142.0661  138.1245  163.0352 C.ar    1  UNL1       -0.0035
     23 C         141.8344  137.6646  164.4441 C.ar    1  UNL1       -0.0207
     24 C         142.6938  138.1902  165.5555 C.ar    1  UNL1       -0.0035
     25 C         143.7849  139.1756  165.2580 C.ar    1  UNL1        0.0100
     26 N         146.1987  141.6064  163.2544 N.1     1  UNL1       -0.1908
     27 C         145.1076  140.6209  163.5518 C.1     1  UNL1        0.1004
     28 C         139.5429  144.7052  162.9063 C.3     1  UNL1        0.1355
     29 C         140.1596  143.9188  164.0248 C.ar    1  UNL1        0.0027
     30 C         141.2497  142.9302  163.7346 C.ar    1  UNL1       -0.0016
     31 C         141.8665  142.1437  164.8531 C.ar    1  UNL1        0.0123
     32 C         141.3930  142.3459  166.2620 C.ar    1  UNL1        0.0958
     33 C         140.3029  143.3345  166.5523 C.ar    1  UNL1        0.1494
     34 F         139.8295  143.5367  167.9612 F       1  UNL1       -0.2035
     35 C         139.6862  144.1210  165.4338 C.ar    1  UNL1        0.0279
     36 C         142.0097  141.5595  167.3806 C.1     1  UNL1        0.1027
     37 N         142.6264  140.7730  168.4991 N.1     1  UNL1       -0.1908
@<TRIPOS>BOND
     1    26    27    3
     2    27    20    1
     3    20    21   ar
     4    21    22   ar
     5    22    23   ar
     6    23    19    1
     7    19    18    1
     8    18    12    1
     9    12    13    1
    10    13    14    1
    11    14    15    1
    12    15    10    1
    13    10     1    1
    14     1     2   ar
    15     2     3   ar
    16     3     4   ar
    17     4     5   ar
    18     5     6   ar
    19     6     7   ar
    20     7     8   ar
    21     8     9   ar
    22     9    28    1
    23    28    29    1
    24    29    30   ar
    25    30    31   ar
    26    31    32   ar
    27    32    36    1
    28    36    37    3
    29    32    33   ar
    30    33    34    1
    31    33    35   ar
    32    15    16    1
    33    16    17    1
    34    23    24   ar
    35    24    25   ar
    36    25    20   ar
    37    17    12    1
    38     9     1   ar
    39    35    29   ar
    40     8     3   ar
    41    10    11    1
@<TRIPOS>MOLECULE
*****
 37 41 0 0 0
SMALL
GASTEIGER

@<TRIPOS>ATOM
      1 C         142.9742  138.7990  158.5323 C.ar    1  UNL1        0.1981
      2 N         143.2603  137.6386  157.6258 N.ar    1  UNL1       -0.2138
      3 C         142.0022  137.3149  156.8760 C.ar    1  UNL1        0.0999
      4 C         141.6877  136.2697  155.8471 C.ar    1  UNL1        0.0207
      5 C         140.3095  136.1849  155.2612 C.ar    1  UNL1        0.0016
      6 C         139.2458  137.1452  155.7042 C.ar    1  UNL1        0.0016
      7 C         139.5602  138.1903  156.7331 C.ar    1  UNL1        0.0188
      8 C         140.9384  138.2752  157.3190 C.ar    1  UNL1        0.0801
      9 N         141.5392  139.1924  158.3426 N.ar    1  UNL1       -0.2956
     10 N         143.9515  139.4514  159.4646 N.pl3   1  UNL1       -0.3058
     11 H         144.7037  139.9735  159.1028 H       1  UNL1        0.1495
     12 N         143.4453  139.0225  163.9154 N.3     1  UNL1       -0.2723
     13 C         142.8521  138.0008  162.9912 C.3     1  UNL1        0.0738
     14 C         143.0208  138.1437  161.5075 C.3     1  UNL1        0.0369
     15 C         143.7828  139.3084  160.9482 C.3     1  UNL1        0.0745
     16 C         144.3760  140.3302  161.8724 C.3     1  UNL1        0.0369
     17 C         144.2073  140.1871  163.3560 C.3     1  UNL1        0.0738
     18 C         143.2766  138.8795  165.3991 C.3     1  UNL1        0.0768
     19 C         141.9075  138.9462  166.0081 C.3     1  UNL1        0.0437
     20 C         140.7671  142.4414  168.6029 C.ar    1  UNL1        0.0684
     21 C         140.9768  141.0887  169.2164 C.ar    1  UNL1        0.0100
     22 C         141.3569  139.9237  168.3515 C.ar    1  UNL1       -0.0035
     23 C         141.5274  140.1112  166.8730 C.ar    1  UNL1       -0.0207
     24 C         141.3177  141.4639  166.2595 C.ar    1  UNL1       -0.0035
     25 C         140.9376  142.6290  167.1246 C.ar    1  UNL1        0.0100
     26 N         140.0070  144.7715  170.3328 N.1     1  UNL1       -0.1908
     27 C         140.3870  143.6064  169.4679 C.1     1  UNL1        0.1004
     28 C         140.8295  140.3073  159.0521 C.3     1  UNL1        0.1355
     29 C         140.2756  140.0879  160.4286 C.ar    1  UNL1        0.0027
     30 C         140.5662  141.0750  161.5202 C.ar    1  UNL1       -0.0016
     31 C         140.0123  140.8556  162.8968 C.ar    1  UNL1        0.0123
     32 C         139.1678  139.6491  163.1819 C.ar    1  UNL1        0.0958
     33 C         138.8772  138.6621  162.0905 C.ar    1  UNL1        0.1494
     34 F         138.0328  137.4557  162.3757 F       1  UNL1       -0.2035
     35 C         139.4311  138.8815  160.7139 C.ar    1  UNL1        0.0279
     36 C         138.6139  139.4298  164.5585 C.1     1  UNL1        0.1027
     37 N         138.0601  139.2104  165.9352 N.1     1  UNL1       -0.1908
@<TRIPOS>BOND
     1    26    27    3
     2    27    20    1
     3    20    21   ar
     4    21    22   ar
     5    22    23   ar
     6    23    19    1
     7    19    18    1
     8    18    12    1
     9    12    13    1
    10    13    14    1
    11    14    15    1
    12    15    10    1
    13    10     1    1
    14     1     2   ar
    15     2     3   ar
    16     3     4   ar
    17     4     5   ar
    18     5     6   ar
    19     6     7   ar
    20     7     8   ar
    21     8     9   ar
    22     9    28    1
    23    28    29    1
    24    29    30   ar
    25    30    31   ar
    26    31    32   ar
    27    32    36    1
    28    36    37    3
    29    32    33   ar
    30    33    34    1
    31    33    35   ar
    32    15    16    1
    33    16    17    1
    34    23    24   ar
    35    24    25   ar
    36    25    20   ar
    37    17    12    1
    38     9     1   ar
    39    35    29   ar
    40     8     3   ar
    41    10    11    1
@<TRIPOS>MOLECULE
*****
 37 41 0 0 0
SMALL
GASTEIGER

@<TRIPOS>ATOM
      1 C         143.5638  138.8335  160.5802 C.ar    1  UNL1        0.1981
      2 N         143.3527  138.5302  159.1264 N.ar    1  UNL1       -0.2138
      3 C         143.5315  139.8049  158.3563 C.ar    1  UNL1        0.0999
      4 C         143.4430  140.1131  156.8910 C.ar    1  UNL1        0.0207
      5 C         143.6761  141.5124  156.4035 C.ar    1  UNL1        0.0016
      6 C         143.9977  142.6035  157.3813 C.ar    1  UNL1        0.0016
      7 C         144.0862  142.2953  158.8466 C.ar    1  UNL1        0.0188
      8 C         143.8531  140.8960  159.3341 C.ar    1  UNL1        0.0801
      9 N         143.8730  140.2956  160.7086 N.ar    1  UNL1       -0.2956
     10 N         143.4802  137.8476  161.7077 N.pl3   1  UNL1       -0.3058
     11 H         144.1816  137.1657  161.8183 H       1  UNL1        0.1495
     12 N         140.0238  138.0073  164.5848 N.3     1  UNL1       -0.2723
     13 C         141.4242  138.2086  165.0830 C.3     1  UNL1        0.0738
     14 C         142.5764  138.1554  164.1240 C.3     1  UNL1        0.0369
     15 C         142.3281  137.9009  162.6667 C.3     1  UNL1        0.0745
     16 C         140.9276  137.6996  162.1685 C.3     1  UNL1        0.0369
     17 C         139.7755  137.7528  163.1275 C.3     1  UNL1        0.0738
     18 C         138.8716  138.0606  165.5438 C.3     1  UNL1        0.0768
     19 C         138.3802  139.3831  166.0531 C.3     1  UNL1        0.0437
     20 C         140.8948  141.7616  168.9288 C.ar    1  UNL1        0.0684
     21 C         140.9202  142.0861  167.4646 C.ar    1  UNL1        0.0100
     22 C         140.0821  141.2932  166.5060 C.ar    1  UNL1       -0.0035
     23 C         139.2184  140.1759  167.0117 C.ar    1  UNL1       -0.0207
     24 C         139.1929  139.8514  168.4760 C.ar    1  UNL1       -0.0035
     25 C         140.0312  140.6443  169.4345 C.ar    1  UNL1        0.0100
     26 N         142.5712  143.3472  170.8460 N.1     1  UNL1       -0.1908
     27 C         141.7329  142.5544  169.8874 C.1     1  UNL1        0.1004
     28 C         144.1530  141.0287  161.9869 C.3     1  UNL1        0.1355
     29 C         143.0730  141.8409  162.6378 C.ar    1  UNL1        0.0027
     30 C         143.4300  143.0530  163.4462 C.ar    1  UNL1       -0.0016
     31 C         142.3500  143.8653  164.0971 C.ar    1  UNL1        0.0123
     32 C         140.9128  143.4654  163.9397 C.ar    1  UNL1        0.0958
     33 C         140.5558  142.2534  163.1314 C.ar    1  UNL1        0.1494
     34 F         139.1186  141.8536  162.9741 F       1  UNL1       -0.2035
     35 C         141.6358  141.4411  162.4805 C.ar    1  UNL1        0.0279
     36 C         139.8328  144.2777  164.5907 C.1     1  UNL1        0.1027
     37 N         138.7528  145.0899  165.2417 N.1     1  UNL1       -0.1908
@<TRIPOS>BOND
     1    26    27    3
     2    27    20    1
     3    20    21   ar
     4    21    22   ar
     5    22    23   ar
     6    23    19    1
     7    19    18    1
     8    18    12    1
     9    12    13    1
    10    13    14    1
    11    14    15    1
    12    15    10    1
    13    10     1    1
    14     1     2   ar
    15     2     3   ar
    16     3     4   ar
    17     4     5   ar
    18     5     6   ar
    19     6     7   ar
    20     7     8   ar
    21     8     9   ar
    22     9    28    1
    23    28    29    1
    24    29    30   ar
    25    30    31   ar
    26    31    32   ar
    27    32    36    1
    28    36    37    3
    29    32    33   ar
    30    33    34    1
    31    33    35   ar
    32    15    16    1
    33    16    17    1
    34    23    24   ar
    35    24    25   ar
    36    25    20   ar
    37    17    12    1
    38     9     1   ar
    39    35    29   ar
    40     8     3   ar
    41    10    11    1
@<TRIPOS>MOLECULE
*****
 37 41 0 0 0
SMALL
GASTEIGER

@<TRIPOS>ATOM
      1 C         139.2981  140.6404  166.5250 C.ar    1  UNL1        0.1981
      2 N         139.9321  139.5340  167.3148 N.ar    1  UNL1       -0.2138
      3 C         141.0236  140.1297  168.1538 C.ar    1  UNL1        0.0999
      4 C         141.9857  139.5199  169.1297 C.ar    1  UNL1        0.0207
      5 C         142.9884  140.3848  169.8343 C.ar    1  UNL1        0.0016
      6 C         143.0290  141.8595  169.5630 C.ar    1  UNL1        0.0016
      7 C         142.0669  142.4693  168.5871 C.ar    1  UNL1        0.0188
      8 C         141.0642  141.6044  167.8825 C.ar    1  UNL1        0.0801
      9 N         139.9978  141.9200  166.8759 N.ar    1  UNL1       -0.2956
     10 N         138.1637  140.4932  165.5548 N.pl3   1  UNL1       -0.3058
     11 H         137.2493  140.7372  165.8259 H       1  UNL1        0.1495
     12 N         138.9402  138.9360  161.4048 N.3     1  UNL1       -0.2723
     13 C         138.5428  140.3682  161.6062 C.3     1  UNL1        0.0738
     14 C         138.2840  140.8874  162.9896 C.3     1  UNL1        0.0369
     15 C         138.4225  139.9741  164.1715 C.3     1  UNL1        0.0745
     16 C         138.8199  138.5418  163.9700 C.3     1  UNL1        0.0369
     17 C         139.0788  138.0227  162.5867 C.3     1  UNL1        0.0738
     18 C         139.1990  138.4168  160.0215 C.3     1  UNL1        0.0768
     19 C         140.5790  138.4915  159.4384 C.3     1  UNL1        0.0437
     20 C         143.9101  140.4076  161.7798 C.ar    1  UNL1        0.0684
     21 C         143.1650  141.2020  160.7484 C.ar    1  UNL1        0.0100
     22 C         142.0546  140.5633  159.9679 C.ar    1  UNL1       -0.0035
     23 C         141.6894  139.1302  160.2188 C.ar    1  UNL1       -0.0207
     24 C         142.4345  138.3359  161.2502 C.ar    1  UNL1       -0.0035
     25 C         143.5449  138.9746  162.0307 C.ar    1  UNL1        0.0100
     26 N         146.1309  141.6850  163.3407 N.1     1  UNL1       -0.1908
     27 C         145.0205  141.0463  162.5602 C.1     1  UNL1        0.1004
     28 C         139.6859  143.2771  166.3180 C.3     1  UNL1        0.1355
     29 C         140.1273  143.6372  164.9305 C.ar    1  UNL1        0.0027
     30 C         141.2518  142.8853  164.2823 C.ar    1  UNL1       -0.0016
     31 C         141.6933  143.2454  162.8947 C.ar    1  UNL1        0.0123
     32 C         141.0103  144.3576  162.1553 C.ar    1  UNL1        0.0958
     33 C         139.8859  145.1095  162.8035 C.ar    1  UNL1        0.1494
     34 F         139.2029  146.2216  162.0641 F       1  UNL1       -0.2035
     35 C         139.4444  144.7494  164.1911 C.ar    1  UNL1        0.0279
     36 C         141.4518  144.7177  160.7678 C.1     1  UNL1        0.1027
     37 N         141.8933  145.0778  159.3802 N.1     1  UNL1       -0.1908
@<TRIPOS>BOND
     1    26    27    3
     2    27    20    1
     3    20    21   ar
     4    21    22   ar
     5    22    23   ar
     6    23    19    1
     7    19    18    1
     8    18    12    1
     9    12    13    1
    10    13    14    1
    11    14    15    1
    12    15    10    1
    13    10     1    1
    14     1     2   ar
    15     2     3   ar
    16     3     4   ar
    17     4     5   ar
    18     5     6   ar
    19     6     7   ar
    20     7     8   ar
    21     8     9   ar
    22     9    28    1
    23    28    29    1
    24    29    30   ar
    25    30    31   ar
    26    31    32   ar
    27    32    36    1
    28    36    37    3
    29    32    33   ar
    30    33    34    1
    31    33    35   ar
    32    15    16    1
    33    16    17    1
    34    23    24   ar
    35    24    25   ar
    36    25    20   ar
    37    17    12    1
    38     9     1   ar
    39    35    29   ar
    40     8     3   ar
    41    10    11    1
@<TRIPOS>MOLECULE
*****
 37 41 0 0 0
SMALL
GASTEIGER

@<TRIPOS>ATOM
      1 C         142.0222  139.4636  166.7808 C.ar    1  UNL1        0.1981
      2 N         143.0494  140.3321  167.4444 N.ar    1  UNL1       -0.2138
      3 C         142.3287  141.3311  168.3003 C.ar    1  UNL1        0.0999
      4 C         142.8232  142.4370  169.1849 C.ar    1  UNL1        0.0207
      5 C         141.8450  143.2918  169.9348 C.ar    1  UNL1        0.0016
      6 C         140.3723  143.0406  169.8003 C.ar    1  UNL1        0.0016
      7 C         139.8778  141.9347  168.9157 C.ar    1  UNL1        0.0188
      8 C         140.8561  141.0800  168.1658 C.ar    1  UNL1        0.0801
      9 N         140.6666  139.9258  167.2267 N.ar    1  UNL1       -0.2956
     10 N         142.3015  138.3316  165.8371 N.pl3   1  UNL1       -0.3058
     11 H         142.1917  137.4008  166.1387 H       1  UNL1        0.1495
     12 N         143.6411  139.1898  161.6278 N.3     1  UNL1       -0.2723
     13 C         142.5490  138.1927  161.8786 C.3     1  UNL1        0.0738
     14 C         142.1024  137.9066  163.2818 C.3     1  UNL1        0.0369
     15 C         142.7480  138.6176  164.4340 C.3     1  UNL1        0.0745
     16 C         143.8402  139.6148  164.1831 C.3     1  UNL1        0.0369
     17 C         144.2867  139.9008  162.7800 C.3     1  UNL1        0.0738
     18 C         144.0877  139.4759  160.2246 C.3     1  UNL1        0.0768
     19 C         143.8321  140.8228  159.6161 C.3     1  UNL1        0.0437
     20 C         140.5955  143.4674  161.2837 C.ar    1  UNL1        0.0684
     21 C         142.0359  143.8571  161.4373 C.ar    1  UNL1        0.0100
     22 C         143.1147  142.9756  160.8815 C.ar    1  UNL1       -0.0035
     23 C         142.7533  141.7043  160.1719 C.ar    1  UNL1       -0.0207
     24 C         141.3129  141.3147  160.0183 C.ar    1  UNL1       -0.0035
     25 C         140.2341  142.1962  160.5742 C.ar    1  UNL1        0.0100
     26 N         138.4378  145.2305  162.3954 N.1     1  UNL1       -0.1908
     27 C         139.5167  144.3489  161.8395 C.1     1  UNL1        0.1004
     28 C         139.3523  139.3371  166.8071 C.3     1  UNL1        0.1355
     29 C         138.9077  139.4372  165.3781 C.ar    1  UNL1        0.0027
     30 C         138.9908  138.2379  164.4809 C.ar    1  UNL1       -0.0016
     31 C         138.5462  138.3379  163.0518 C.ar    1  UNL1        0.0123
     32 C         138.0184  139.6374  162.5198 C.ar    1  UNL1        0.0958
     33 C         137.9353  140.8366  163.4169 C.ar    1  UNL1        0.1494
     34 F         137.4075  142.1360  162.8848 F       1  UNL1       -0.2035
     35 C         138.3799  140.7366  164.8460 C.ar    1  UNL1        0.0279
     36 C         137.5738  139.7374  161.0907 C.1     1  UNL1        0.1027
     37 N         137.1292  139.8374  159.6617 N.1     1  UNL1       -0.1908
@<TRIPOS>BOND
     1    26    27    3
     2    27    20    1
     3    20    21   ar
     4    21    22   ar
     5    22    23   ar
     6    23    19    1
     7    19    18    1
     8    18    12    1
     9    12    13    1
    10    13    14    1
    11    14    15    1
    12    15    10    1
    13    10     1    1
    14     1     2   ar
    15     2     3   ar
    16     3     4   ar
    17     4     5   ar
    18     5     6   ar
    19     6     7   ar
    20     7     8   ar
    21     8     9   ar
    22     9    28    1
    23    28    29    1
    24    29    30   ar
    25    30    31   ar
    26    31    32   ar
    27    32    36    1
    28    36    37    3
    29    32    33   ar
    30    33    34    1
    31    33    35   ar
    32    15    16    1
    33    16    17    1
    34    23    24   ar
    35    24    25   ar
    36    25    20   ar
    37    17    12    1
    38     9     1   ar
    39    35    29   ar
    40     8     3   ar
    41    10    11    1
@<TRIPOS>MOLECULE
*****
 37 41 0 0 0
SMALL
GASTEIGER

@<TRIPOS>ATOM
      1 C         138.9760  143.2047  159.7816 C.ar    1  UNL1        0.1981
      2 N         139.0311  142.5615  158.4277 N.ar    1  UNL1       -0.2138
      3 C         140.1157  143.2334  157.6390 C.ar    1  UNL1        0.0999
      4 C         140.6226  143.0181  156.2438 C.ar    1  UNL1        0.0207
      5 C         141.7448  143.8614  155.7151 C.ar    1  UNL1        0.0016
      6 C         142.3601  144.9199  156.5816 C.ar    1  UNL1        0.0016
      7 C         141.8532  145.1352  157.9769 C.ar    1  UNL1        0.0188
      8 C         140.7310  144.2919  158.5055 C.ar    1  UNL1        0.0801
      9 N         140.0266  144.2742  159.8297 N.ar    1  UNL1       -0.2956
     10 N         138.0354  142.8421  160.8924 N.pl3   1  UNL1       -0.3058
     11 H         137.2879  143.4411  161.1197 H       1  UNL1        0.1495
     12 N         138.6303  139.0164  163.1858 N.3     1  UNL1       -0.2723
     13 C         138.8704  139.0485  161.7056 C.3     1  UNL1        0.0738
     14 C         138.6721  140.3238  160.9410 C.3     1  UNL1        0.0369
     15 C         138.2337  141.5669  161.6569 C.3     1  UNL1        0.0745
     16 C         137.9936  141.5348  163.1372 C.3     1  UNL1        0.0369
     17 C         138.1919  140.2595  163.9017 C.3     1  UNL1        0.0738
     18 C         138.8286  137.7411  163.9504 C.3     1  UNL1        0.0768
     19 C         140.0645  137.5472  164.7779 C.3     1  UNL1        0.0437
     20 C         143.7395  140.0066  163.9437 C.ar    1  UNL1        0.0684
     21 C         142.9403  140.2510  165.1894 C.ar    1  UNL1        0.0100
     22 C         141.7153  139.4313  165.4674 C.ar    1  UNL1       -0.0035
     23 C         141.2895  138.3670  164.4998 C.ar    1  UNL1       -0.0207
     24 C         142.0887  138.1226  163.2542 C.ar    1  UNL1       -0.0035
     25 C         143.3137  138.9425  162.9762 C.ar    1  UNL1        0.0100
     26 N         146.1895  141.6462  163.3876 N.1     1  UNL1       -0.1908
     27 C         144.9645  140.8264  163.6657 C.1     1  UNL1        0.1004
     28 C         140.3212  145.1689  160.9971 C.3     1  UNL1        0.1355
     29 C         140.3425  144.6057  162.3871 C.ar    1  UNL1        0.0027
     30 C         141.3080  143.5128  162.7388 C.ar    1  UNL1       -0.0016
     31 C         141.3294  142.9496  164.1289 C.ar    1  UNL1        0.0123
     32 C         140.3853  143.4792  165.1673 C.ar    1  UNL1        0.0958
     33 C         139.4200  144.5720  164.8156 C.ar    1  UNL1        0.1494
     34 F         138.4759  145.1016  165.8541 F       1  UNL1       -0.2035
     35 C         139.3985  145.1353  163.4256 C.ar    1  UNL1        0.0279
     36 C         140.4068  142.9159  166.5573 C.1     1  UNL1        0.1027
     37 N         140.4282  142.3527  167.9474 N.1     1  UNL1       -0.1908
@<TRIPOS>BOND
     1    26    27    3
     2    27    20    1
     3    20    21   ar
     4    21    22   ar
     5    22    23   ar
     6    23    19    1
     7    19    18    1
     8    18    12    1
     9    12    13    1
    10    13    14    1
    11    14    15    1
    12    15    10    1
    13    10     1    1
    14     1     2   ar
    15     2     3   ar
    16     3     4   ar
    17     4     5   ar
    18     5     6   ar
    19     6     7   ar
    20     7     8   ar
    21     8     9   ar
    22     9    28    1
    23    28    29    1
    24    29    30   ar
    25    30    31   ar
    26    31    32   ar
    27    32    36    1
    28    36    37    3
    29    32    33   ar
    30    33    34    1
    31    33    35   ar
    32    15    16    1
    33    16    17    1
    34    23    24   ar
    35    24    25   ar
    36    25    20   ar
    37    17    12    1
    38     9     1   ar
    39    35    29   ar
    40     8     3   ar
    41    10    11    1
@<TRIPOS>MOLECULE
*****
 37 41 0 0 0
SMALL
GASTEIGER

@<TRIPOS>ATOM
      1 C         142.7243  139.1290  166.6420 C.ar    1  UNL1        0.1981
      2 N         143.0837  139.1430  168.0982 N.ar    1  UNL1       -0.2138
      3 C         141.8722  139.5738  168.8706 C.ar    1  UNL1        0.0999
      4 C         141.6350  139.7689  170.3388 C.ar    1  UNL1        0.0207
      5 C         140.2895  140.2163  170.8281 C.ar    1  UNL1        0.0016
      6 C         139.1812  140.4686  169.8493 C.ar    1  UNL1        0.0016
      7 C         139.4185  140.2734  168.3811 C.ar    1  UNL1        0.0188
      8 C         140.7639  139.8260  167.8918 C.ar    1  UNL1        0.0801
      9 N         141.2906  139.5511  166.5144 N.ar    1  UNL1       -0.2956
     10 N         143.6381  138.7580  165.5118 N.pl3   1  UNL1       -0.3058
     11 H         144.0748  137.8757  165.5012 H       1  UNL1        0.1495
     12 N         144.3831  141.6776  162.1695 N.3     1  UNL1       -0.2723
     13 C         144.3364  142.1590  163.5893 C.3     1  UNL1        0.0738
     14 C         144.0880  141.1858  164.7035 C.3     1  UNL1        0.0369
     15 C         143.8864  139.7312  164.3977 C.3     1  UNL1        0.0745
     16 C         143.9332  139.2498  162.9778 C.3     1  UNL1        0.0369
     17 C         144.1815  140.2230  161.8637 C.3     1  UNL1        0.0738
     18 C         144.6315  142.6508  161.0553 C.3     1  UNL1        0.0768
     19 C         144.1503  142.3420  159.6686 C.3     1  UNL1        0.0437
     20 C         141.2938  145.1394  157.6034 C.ar    1  UNL1        0.0684
     21 C         142.2761  144.3415  156.7982 C.ar    1  UNL1        0.0100
     22 C         143.2282  143.4091  157.4865 C.ar    1  UNL1       -0.0035
     23 C         143.1981  143.2745  158.9802 C.ar    1  UNL1       -0.0207
     24 C         142.2158  144.0724  159.7855 C.ar    1  UNL1       -0.0035
     25 C         141.2636  145.0049  159.0970 C.ar    1  UNL1        0.0100
     26 N         139.3895  147.0044  156.2266 N.1     1  UNL1       -0.1908
     27 C         140.3416  146.0719  156.9150 C.1     1  UNL1        0.1004
     28 C         140.5189  139.6764  165.2342 C.3     1  UNL1        0.1355
     29 C         140.3690  141.0163  164.5769 C.ar    1  UNL1        0.0027
     30 C         140.7052  141.1809  163.1243 C.ar    1  UNL1       -0.0016
     31 C         140.5553  142.5208  162.4669 C.ar    1  UNL1        0.0123
     32 C         140.0691  143.6961  163.2621 C.ar    1  UNL1        0.0958
     33 C         139.7329  143.5315  164.7146 C.ar    1  UNL1        0.1494
     34 F         139.2467  144.7069  165.5097 F       1  UNL1       -0.2035
     35 C         139.8828  142.1916  165.3720 C.ar    1  UNL1        0.0279
     36 C         139.9192  145.0360  162.6046 C.1     1  UNL1        0.1027
     37 N         139.7692  146.3759  161.9472 N.1     1  UNL1       -0.1908
@<TRIPOS>BOND
     1    26    27    3
     2    27    20    1
     3    20    21   ar
     4    21    22   ar
     5    22    23   ar
     6    23    19    1
     7    19    18    1
     8    18    12    1
     9    12    13    1
    10    13    14    1
    11    14    15    1
    12    15    10    1
    13    10     1    1
    14     1     2   ar
    15     2     3   ar
    16     3     4   ar
    17     4     5   ar
    18     5     6   ar
    19     6     7   ar
    20     7     8   ar
    21     8     9   ar
    22     9    28    1
    23    28    29    1
    24    29    30   ar
    25    30    31   ar
    26    31    32   ar
    27    32    36    1
    28    36    37    3
    29    32    33   ar
    30    33    34    1
    31    33    35   ar
    32    15    16    1
    33    16    17    1
    34    23    24   ar
    35    24    25   ar
    36    25    20   ar
    37    17    12    1
    38     9     1   ar
    39    35    29   ar
    40     8     3   ar
    41    10    11    1
@<TRIPOS>MOLECULE
*****
 37 41 0 0 0
SMALL
GASTEIGER

@<TRIPOS>ATOM
      1 C         141.2725  145.0542  159.9377 C.ar    1  UNL1        0.1981
      2 N         141.9951  145.5552  158.7225 N.ar    1  UNL1       -0.2138
      3 C         141.2656  145.0558  157.5106 C.ar    1  UNL1        0.0999
      4 C         141.5183  145.2337  156.0429 C.ar    1  UNL1        0.0207
      5 C         140.5975  144.6019  155.0414 C.ar    1  UNL1        0.0016
      6 C         139.4241  143.7922  155.5077 C.ar    1  UNL1        0.0016
      7 C         139.1714  143.6143  156.9755 C.ar    1  UNL1        0.0188
      8 C         140.0922  144.2461  157.9770 C.ar    1  UNL1        0.0801
      9 N         140.0965  144.2451  159.4770 N.ar    1  UNL1       -0.2956
     10 N         141.6583  145.3162  161.3634 N.pl3   1  UNL1       -0.3058
     11 H         141.2593  146.0733  161.8501 H       1  UNL1        0.1495
     12 N         144.6388  142.6416  163.4158 N.3     1  UNL1       -0.2723
     13 C         143.9561  143.7332  164.1854 C.3     1  UNL1        0.0738
     14 C         142.9626  144.6248  163.5013 C.3     1  UNL1        0.0369
     15 C         142.6518  144.4247  162.0475 C.3     1  UNL1        0.0745
     16 C         143.3345  143.3330  161.2779 C.3     1  UNL1        0.0369
     17 C         144.3280  142.4415  161.9621 C.3     1  UNL1        0.0738
     18 C         145.6324  141.7500  164.1000 C.3     1  UNL1        0.0768
     19 C         145.4241  140.2646  164.1112 C.3     1  UNL1        0.0437
     20 C         141.3211  138.5737  164.8573 C.ar    1  UNL1        0.0684
     21 C         142.0156  138.3097  163.5542 C.ar    1  UNL1        0.0100
     22 C         143.3832  138.8733  163.3055 C.ar    1  UNL1       -0.0035
     23 C         144.0565  139.7010  164.3599 C.ar    1  UNL1       -0.0207
     24 C         143.3620  139.9651  165.6630 C.ar    1  UNL1       -0.0035
     25 C         141.9943  139.4014  165.9117 C.ar    1  UNL1        0.0100
     26 N         138.5858  137.4465  165.3548 N.1     1  UNL1       -0.1908
     27 C         139.9535  138.0101  165.1060 C.1     1  UNL1        0.1004
     28 C         139.0996  143.5560  160.3610 C.3     1  UNL1        0.1355
     29 C         139.3973  143.3623  161.8183 C.ar    1  UNL1        0.0027
     30 C         140.0971  142.1192  162.2821 C.ar    1  UNL1       -0.0016
     31 C         140.3948  141.9254  163.7394 C.ar    1  UNL1        0.0123
     32 C         139.9927  142.9748  164.7330 C.ar    1  UNL1        0.0958
     33 C         139.2929  144.2178  164.2692 C.ar    1  UNL1        0.1494
     34 F         138.8909  145.2671  165.2629 F       1  UNL1       -0.2035
     35 C         138.9952  144.4116  162.8119 C.ar    1  UNL1        0.0279
     36 C         140.2904  142.7810  166.1903 C.1     1  UNL1        0.1027
     37 N         140.5881  142.5872  167.6477 N.1     1  UNL1       -0.1908
@<TRIPOS>BOND
     1    26    27    3
     2    27    20    1
     3    20    21   ar
     4    21    22   ar
     5    22    23   ar
     6    23    19    1
     7    19    18    1
     8    18    12    1
     9    12    13    1
    10    13    14    1
    11    14    15    1
    12    15    10    1
    13    10     1    1
    14     1     2   ar
    15     2     3   ar
    16     3     4   ar
    17     4     5   ar
    18     5     6   ar
    19     6     7   ar
    20     7     8   ar
    21     8     9   ar
    22     9    28    1
    23    28    29    1
    24    29    30   ar
    25    30    31   ar
    26    31    32   ar
    27    32    36    1
    28    36    37    3
    29    32    33   ar
    30    33    34    1
    31    33    35   ar
    32    15    16    1
    33    16    17    1
    34    23    24   ar
    35    24    25   ar
    36    25    20   ar
    37    17    12    1
    38     9     1   ar
    39    35    29   ar
    40     8     3   ar
    41    10    11    1
@<TRIPOS>MOLECULE
*****
 37 41 0 0 0
SMALL
GASTEIGER

@<TRIPOS>ATOM
      1 C         139.0800  142.2041  159.2946 C.ar    1  UNL1        0.1981
      2 N         139.5276  142.0989  157.8668 N.ar    1  UNL1       -0.2138
      3 C         140.3963  143.2839  157.5648 C.ar    1  UNL1        0.0999
      4 C         141.1175  143.7084  156.3200 C.ar    1  UNL1        0.0207
      5 C         141.9281  144.9705  156.3164 C.ar    1  UNL1        0.0016
      6 C         142.0173  145.8081  157.5575 C.ar    1  UNL1        0.0016
      7 C         141.2961  145.3836  158.8023 C.ar    1  UNL1        0.0188
      8 C         140.4856  144.1215  158.8060 C.ar    1  UNL1        0.0801
      9 N         139.6720  143.4541  159.8750 N.ar    1  UNL1       -0.2956
     10 N         138.1956  141.2303  160.0154 N.pl3   1  UNL1       -0.3058
     11 H         137.2876  141.0490  159.6808 H       1  UNL1        0.1495
     12 N         139.6924  139.1378  163.7074 N.3     1  UNL1       -0.2723
     13 C         138.4077  139.9107  163.7522 C.3     1  UNL1        0.0738
     14 C         137.9087  140.6082  162.5215 C.3     1  UNL1        0.0369
     15 C         138.6945  140.5328  161.2460 C.3     1  UNL1        0.0745
     16 C         139.9793  139.7599  161.2012 C.3     1  UNL1        0.0369
     17 C         140.4782  139.0624  162.4319 C.3     1  UNL1        0.0738
     18 C         140.1915  138.4402  164.9380 C.3     1  UNL1        0.0768
     19 C         141.3241  139.0283  165.7262 C.3     1  UNL1        0.0437
     20 C         140.5737  142.4863  168.5064 C.ar    1  UNL1        0.0684
     21 C         140.7011  141.0963  169.0557 C.ar    1  UNL1        0.0100
     22 C         140.9512  139.9436  168.1290 C.ar    1  UNL1       -0.0035
     23 C         141.0740  140.1809  166.6529 C.ar    1  UNL1       -0.0207
     24 C         140.9465  141.5709  166.1036 C.ar    1  UNL1       -0.0035
     25 C         140.6964  142.7236  167.0304 C.ar    1  UNL1        0.0100
     26 N         140.0734  144.7916  170.3598 N.1     1  UNL1       -0.1908
     27 C         140.3235  143.6389  169.4330 C.1     1  UNL1        0.1004
     28 C         139.4837  143.9498  161.2781 C.3     1  UNL1        0.1355
     29 C         140.6450  143.9749  162.2270 C.ar    1  UNL1        0.0027
     30 C         141.0076  145.2465  162.9353 C.ar    1  UNL1       -0.0016
     31 C         142.1690  145.2716  163.8843 C.ar    1  UNL1        0.0123
     32 C         142.9679  144.0250  164.1249 C.ar    1  UNL1        0.0958
     33 C         142.6054  142.7535  163.4167 C.ar    1  UNL1        0.1494
     34 F         143.4044  141.5070  163.6574 F       1  UNL1       -0.2035
     35 C         141.4440  142.7284  162.4677 C.ar    1  UNL1        0.0279
     36 C         144.1293  144.0501  165.0739 C.1     1  UNL1        0.1027
     37 N         145.2907  144.0753  166.0228 N.1     1  UNL1       -0.1908
@<TRIPOS>BOND
     1    26    27    3
     2    27    20    1
     3    20    21   ar
     4    21    22   ar
     5    22    23   ar
     6    23    19    1
     7    19    18    1
     8    18    12    1
     9    12    13    1
    10    13    14    1
    11    14    15    1
    12    15    10    1
    13    10     1    1
    14     1     2   ar
    15     2     3   ar
    16     3     4   ar
    17     4     5   ar
    18     5     6   ar
    19     6     7   ar
    20     7     8   ar
    21     8     9   ar
    22     9    28    1
    23    28    29    1
    24    29    30   ar
    25    30    31   ar
    26    31    32   ar
    27    32    36    1
    28    36    37    3
    29    32    33   ar
    30    33    34    1
    31    33    35   ar
    32    15    16    1
    33    16    17    1
    34    23    24   ar
    35    24    25   ar
    36    25    20   ar
    37    17    12    1
    38     9     1   ar
    39    35    29   ar
    40     8     3   ar
    41    10    11    1
