@<TRIPOS>MOLECULE
*****
 26 29 0 0 0
SMALL
GASTEIGER

@<TRIPOS>ATOM
      1 C         143.1916  142.2228  166.9501 C.3     1  UNL1        0.0738
      2 C         141.9957  141.6019  167.6094 C.ar    1  UNL1        0.1427
      3 N         141.7099  141.8764  169.0560 N.ar    1  UNL1       -0.2147
      4 C         140.5141  141.2555  169.7152 C.ar    1  UNL1        0.1494
      5 N         140.2283  141.5301  171.1620 N.pl3   1  UNL1       -0.3413
      6 C         139.6041  140.3601  168.9277 C.ar    1  UNL1        0.1708
      7 N         138.3595  139.6124  169.3044 N.ar    1  UNL1       -0.1243
      8 N         137.8762  138.8757  168.0904 N.ar    1  UNL1       -0.0624
      9 N         138.8220  139.1682  166.9635 N.ar    1  UNL1       -0.2122
     10 C         139.8900  140.0856  167.4810 C.ar    1  UNL1        0.1844
     11 N         141.0858  140.7065  166.8218 N.ar    1  UNL1       -0.2104
     12 H         140.8256  142.1178  171.6788 H       1  UNL1        0.1438
     13 H         139.4435  141.1227  171.5947 H       1  UNL1        0.1438
     14 C         138.7181  138.6365  165.5648 C.3     1  UNL1        0.1616
     15 C         138.3858  139.5631  164.4330 C.3     1  UNL1        0.1556
     16 C         138.2613  141.0370  164.6822 C.3     1  UNL1        0.1044
     17 N         137.9289  141.9636  163.5505 N.3     1  UNL1       -0.2629
     18 C         137.7210  141.4162  162.1694 C.3     1  UNL1        0.1049
     19 C         137.8455  139.9424  161.9202 C.3     1  UNL1        0.1595
     20 O         138.1779  139.0158  163.0519 O.3     1  UNL1       -0.3513
     21 C         137.8044  143.4375  163.7997 C.3     1  UNL1        0.1256
     22 C         138.8018  144.3859  163.2032 C.ar    1  UNL1        0.1045
     23 N         138.5371  145.3619  162.0955 N.ar    1  UNL1       -0.2398
     24 C         139.8108  146.1040  161.8174 C.ar    1  UNL1        0.1061
     25 C         140.8625  145.5865  162.7534 C.ar    1  UNL1        0.0572
     26 S         140.2389  144.5247  163.6098 S.2     1  UNL1       -0.0688
@<TRIPOS>BOND
     1     1     2    1
     2     2     3   ar
     3     3     4   ar
     4     4     5    1
     5     4     6   ar
     6     6     7   ar
     7     7     8   ar
     8     8     9   ar
     9     9    14    1
    10    15    14    1
    11    15    16    1
    12    16    17    1
    13    17    21    1
    14    21    22    1
    15    22    23   ar
    16    23    24   ar
    17    24    25   ar
    18    25    26   ar
    19    17    18    1
    20    18    19    1
    21    19    20    1
    22     9    10   ar
    23    10    11   ar
    24    11     2   ar
    25    10     6   ar
    26    20    15    1
    27    26    22   ar
    28     5    12    1
    29     5    13    1
@<TRIPOS>MOLECULE
*****
 26 29 0 0 0
SMALL
GASTEIGER

@<TRIPOS>ATOM
      1 C         143.4271  145.0669  163.9605 C.3     1  UNL1        0.0738
      2 C         142.0001  144.8418  163.5565 C.ar    1  UNL1        0.1427
      3 N         141.3064  145.8328  162.6697 N.ar    1  UNL1       -0.2147
      4 C         139.8794  145.6077  162.2658 C.ar    1  UNL1        0.1494
      5 N         139.1857  146.5988  161.3789 N.pl3   1  UNL1       -0.3413
      6 C         139.1462  144.3915  162.7488 C.ar    1  UNL1        0.1708
      7 N         137.7457  143.9064  162.5181 N.ar    1  UNL1       -0.1243
      8 N         137.5740  142.6154  163.2624 N.ar    1  UNL1       -0.0624
      9 N         138.8683  142.3028  163.9531 N.ar    1  UNL1       -0.2122
     10 C         139.8400  143.4005  163.6356 C.ar    1  UNL1        0.1844
     11 N         141.2670  143.6256  164.0395 N.ar    1  UNL1       -0.2104
     12 H         139.6670  147.3971  161.0620 H       1  UNL1        0.1438
     13 H         138.2491  146.4511  161.1138 H       1  UNL1        0.1438
     14 C         139.1426  141.1030  164.8106 C.3     1  UNL1        0.1616
     15 C         139.7368  139.8669  164.2031 C.3     1  UNL1        0.1556
     16 C         141.2099  139.7999  163.9287 C.3     1  UNL1        0.1044
     17 N         141.8041  138.5638  163.3212 N.3     1  UNL1       -0.2629
     18 C         140.9251  137.3948  162.9882 C.3     1  UNL1        0.1049
     19 C         139.4519  137.4619  163.2627 C.3     1  UNL1        0.1595
     20 O         138.8578  138.6980  163.8702 O.3     1  UNL1       -0.3513
     21 C         143.2772  138.4966  163.0467 C.3     1  UNL1        0.1256
     22 C         144.1057  139.7464  163.0888 C.ar    1  UNL1        0.1045
     23 N         144.9628  140.1977  164.2341 N.ar    1  UNL1       -0.2398
     24 C         145.6094  141.4945  163.8463 C.ar    1  UNL1        0.1061
     25 C         145.1518  141.8445  162.4613 C.ar    1  UNL1        0.0572
     26 S         144.2226  140.7641  161.9932 S.2     1  UNL1       -0.0688
@<TRIPOS>BOND
     1     1     2    1
     2     2     3   ar
     3     3     4   ar
     4     4     5    1
     5     4     6   ar
     6     6     7   ar
     7     7     8   ar
     8     8     9   ar
     9     9    14    1
    10    15    14    1
    11    15    16    1
    12    16    17    1
    13    17    21    1
    14    21    22    1
    15    22    23   ar
    16    23    24   ar
    17    24    25   ar
    18    25    26   ar
    19    17    18    1
    20    18    19    1
    21    19    20    1
    22     9    10   ar
    23    10    11   ar
    24    11     2   ar
    25    10     6   ar
    26    20    15    1
    27    26    22   ar
    28     5    12    1
    29     5    13    1
@<TRIPOS>MOLECULE
*****
 26 29 0 0 0
SMALL
GASTEIGER

@<TRIPOS>ATOM
      1 C         138.6256  144.8081  165.3567 C.3     1  UNL1        0.0738
      2 C         139.5989  144.7644  164.2161 C.ar    1  UNL1        0.1427
      3 N         139.1810  145.2359  162.8550 N.ar    1  UNL1       -0.2147
      4 C         140.1544  145.1922  161.7144 C.ar    1  UNL1        0.1494
      5 N         139.7363  145.6638  160.3532 N.pl3   1  UNL1       -0.3413
      6 C         141.5457  144.6769  161.9352 C.ar    1  UNL1        0.1708
      7 N         142.7149  144.5157  161.0095 N.ar    1  UNL1       -0.1243
      8 N         143.8555  143.9445  161.7987 N.ar    1  UNL1       -0.0624
      9 N         143.3912  143.7527  163.2121 N.ar    1  UNL1       -0.2122
     10 C         141.9636  144.2053  163.2964 C.ar    1  UNL1        0.1844
     11 N         140.9902  144.2491  164.4369 N.ar    1  UNL1       -0.2104
     12 H         138.8232  146.0020  160.2083 H       1  UNL1        0.1438
     13 H         140.3752  145.6351  159.6046 H       1  UNL1        0.1438
     14 C         144.2106  143.2044  164.3426 C.3     1  UNL1        0.1616
     15 C         144.0921  141.7581  164.7222 C.3     1  UNL1        0.1556
     16 C         142.9940  141.3115  165.6411 C.3     1  UNL1        0.1044
     17 N         142.8755  139.8651  166.0208 N.3     1  UNL1       -0.2629
     18 C         143.8553  138.8655  165.4814 C.3     1  UNL1        0.1049
     19 C         144.9534  139.3122  164.5625 C.3     1  UNL1        0.1595
     20 O         145.0718  140.7585  164.1829 O.3     1  UNL1       -0.3513
     21 C         141.7773  139.4184  166.9398 C.3     1  UNL1        0.1256
     22 C         141.7848  139.8419  168.3787 C.ar    1  UNL1        0.1045
     23 N         142.9571  139.7732  169.3119 N.ar    1  UNL1       -0.2398
     24 C         142.5182  140.2973  170.6471 C.ar    1  UNL1        0.1061
     25 C         141.0745  140.6899  170.5390 C.ar    1  UNL1        0.0572
     26 S         140.6213  140.4084  169.1371 S.2     1  UNL1       -0.0688
@<TRIPOS>BOND
     1     1     2    1
     2     2     3   ar
     3     3     4   ar
     4     4     5    1
     5     4     6   ar
     6     6     7   ar
     7     7     8   ar
     8     8     9   ar
     9     9    14    1
    10    15    14    1
    11    15    16    1
    12    16    17    1
    13    17    21    1
    14    21    22    1
    15    22    23   ar
    16    23    24   ar
    17    24    25   ar
    18    25    26   ar
    19    17    18    1
    20    18    19    1
    21    19    20    1
    22     9    10   ar
    23    10    11   ar
    24    11     2   ar
    25    10     6   ar
    26    20    15    1
    27    26    22   ar
    28     5    12    1
    29     5    13    1
@<TRIPOS>MOLECULE
*****
 26 29 0 0 0
SMALL
GASTEIGER

@<TRIPOS>ATOM
      1 C         138.5341  144.8146  165.3518 C.3     1  UNL1        0.0738
      2 C         139.5685  144.7465  164.2675 C.ar    1  UNL1        0.1427
      3 N         139.2088  145.1300  162.8627 N.ar    1  UNL1       -0.2147
      4 C         140.2432  145.0619  161.7784 C.ar    1  UNL1        0.1494
      5 N         139.8834  145.4454  160.3736 N.pl3   1  UNL1       -0.3413
      6 C         141.6372  144.6104  162.0991 C.ar    1  UNL1        0.1708
      7 N         142.8594  144.4436  161.2457 N.ar    1  UNL1       -0.1243
      8 N         143.9744  143.9570  162.1232 N.ar    1  UNL1       -0.0624
      9 N         143.4414  143.8231  163.5188 N.ar    1  UNL1       -0.2122
     10 C         141.9968  144.2269  163.5040 C.ar    1  UNL1        0.1844
     11 N         140.9625  144.2950  164.5881 N.ar    1  UNL1       -0.2104
     12 H         138.9685  145.7418  160.1632 H       1  UNL1        0.1438
     13 H         140.5623  145.4008  159.6620 H       1  UNL1        0.1438
     14 C         144.2167  143.3657  164.7187 C.3     1  UNL1        0.1616
     15 C         143.6667  142.2828  165.5989 C.3     1  UNL1        0.1556
     16 C         143.4066  140.9176  165.0349 C.3     1  UNL1        0.1044
     17 N         142.8566  139.8347  165.9151 N.3     1  UNL1       -0.2629
     18 C         142.5666  140.1172  167.3595 C.3     1  UNL1        0.1049
     19 C         142.8267  141.4825  167.9235 C.3     1  UNL1        0.1595
     20 O         143.3767  142.5653  167.0433 O.3     1  UNL1       -0.3513
     21 C         142.5964  138.4693  165.3510 C.3     1  UNL1        0.1256
     22 C         141.3238  138.1957  164.6057 C.ar    1  UNL1        0.1045
     23 N         139.9347  138.4602  165.1061 N.ar    1  UNL1       -0.2398
     24 C         138.9692  138.0376  164.0388 C.ar    1  UNL1        0.1061
     25 C         139.7616  137.5119  162.8788 C.ar    1  UNL1        0.0572
     26 S         141.2168  137.6096  163.2291 S.2     1  UNL1       -0.0688
@<TRIPOS>BOND
     1     1     2    1
     2     2     3   ar
     3     3     4   ar
     4     4     5    1
     5     4     6   ar
     6     6     7   ar
     7     7     8   ar
     8     8     9   ar
     9     9    14    1
    10    15    14    1
    11    15    16    1
    12    16    17    1
    13    17    21    1
    14    21    22    1
    15    22    23   ar
    16    23    24   ar
    17    24    25   ar
    18    25    26   ar
    19    17    18    1
    20    18    19    1
    21    19    20    1
    22     9    10   ar
    23    10    11   ar
    24    11     2   ar
    25    10     6   ar
    26    20    15    1
    27    26    22   ar
    28     5    12    1
    29     5    13    1
@<TRIPOS>MOLECULE
*****
 26 29 0 0 0
SMALL
GASTEIGER

@<TRIPOS>ATOM
      1 C         143.6985  144.0142  164.5200 C.3     1  UNL1        0.0738
      2 C         142.5473  144.0476  163.5588 C.ar    1  UNL1        0.1427
      3 N         142.7035  144.7148  162.2245 N.ar    1  UNL1       -0.2147
      4 C         141.5524  144.7482  161.2633 C.ar    1  UNL1        0.1494
      5 N         141.7086  145.4154  159.9289 N.pl3   1  UNL1       -0.3413
      6 C         140.2451  144.1144  161.6365 C.ar    1  UNL1        0.1708
      7 N         138.9435  143.9908  160.9013 N.ar    1  UNL1       -0.1243
      8 N         137.9829  143.2473  161.7813 N.ar    1  UNL1       -0.0624
      9 N         138.6908  142.9113  163.0603 N.ar    1  UNL1       -0.2122
     10 C         140.0889  143.4472  162.9709 C.ar    1  UNL1        0.1844
     11 N         141.2401  143.4138  163.9320 N.ar    1  UNL1       -0.2104
     12 H         142.5666  145.8314  159.6840 H       1  UNL1        0.1438
     13 H         140.9531  145.4373  159.2980 H       1  UNL1        0.1438
     14 C         138.1036  142.1697  164.2245 C.3     1  UNL1        0.1616
     15 C         138.3946  140.7096  164.4075 C.3     1  UNL1        0.1556
     16 C         139.0386  139.9288  163.3005 C.3     1  UNL1        0.1044
     17 N         139.3297  138.4687  163.4834 N.3     1  UNL1       -0.2629
     18 C         138.9766  137.7895  164.7735 C.3     1  UNL1        0.1049
     19 C         138.3326  138.5704  165.8804 C.3     1  UNL1        0.1595
     20 O         138.0416  140.0304  165.6974 O.3     1  UNL1       -0.3513
     21 C         139.9737  137.6878  162.3764 C.3     1  UNL1        0.1256
     22 C         141.3904  137.9792  161.9788 C.ar    1  UNL1        0.1045
     23 N         142.5786  137.9900  162.8942 N.ar    1  UNL1       -0.2398
     24 C         143.7902  138.3285  162.0772 C.ar    1  UNL1        0.1061
     25 C         143.3506  138.5269  160.6568 C.ar    1  UNL1        0.0572
     26 S         141.8676  138.3110  160.5960 S.2     1  UNL1       -0.0688
@<TRIPOS>BOND
     1     1     2    1
     2     2     3   ar
     3     3     4   ar
     4     4     5    1
     5     4     6   ar
     6     6     7   ar
     7     7     8   ar
     8     8     9   ar
     9     9    14    1
    10    15    14    1
    11    15    16    1
    12    16    17    1
    13    17    21    1
    14    21    22    1
    15    22    23   ar
    16    23    24   ar
    17    24    25   ar
    18    25    26   ar
    19    17    18    1
    20    18    19    1
    21    19    20    1
    22     9    10   ar
    23    10    11   ar
    24    11     2   ar
    25    10     6   ar
    26    20    15    1
    27    26    22   ar
    28     5    12    1
    29     5    13    1
@<TRIPOS>MOLECULE
*****
 26 29 0 0 0
SMALL
GASTEIGER

@<TRIPOS>ATOM
      1 C         137.9508  138.9267  166.8192 C.3     1  UNL1        0.0738
      2 C         139.0026  139.6779  167.5804 C.ar    1  UNL1        0.1427
      3 N         139.0635  139.5752  169.0756 N.ar    1  UNL1       -0.2147
      4 C         140.1153  140.3264  169.8368 C.ar    1  UNL1        0.1494
      5 N         140.1761  140.2236  171.3321 N.pl3   1  UNL1       -0.3413
      6 C         141.1063  141.1802  169.1027 C.ar    1  UNL1        0.1708
      7 N         142.2468  142.0298  169.5797 N.ar    1  UNL1       -0.1243
      8 N         142.8908  142.6575  168.3792 N.ar    1  UNL1       -0.0624
      9 N         142.1483  142.1959  167.1603 N.ar    1  UNL1       -0.2122
     10 C         141.0454  141.2829  167.6075 C.ar    1  UNL1        0.1844
     11 N         139.9936  140.5317  166.8463 N.ar    1  UNL1       -0.2104
     12 H         139.5257  139.6632  171.8138 H       1  UNL1        0.1438
     13 H         140.8665  140.7166  171.8317 H       1  UNL1        0.1438
     14 C         142.4550  142.5799  165.7431 C.3     1  UNL1        0.1616
     15 C         143.2273  141.6429  164.8624 C.3     1  UNL1        0.1556
     16 C         142.5980  140.3649  164.3929 C.3     1  UNL1        0.1044
     17 N         143.3703  139.4279  163.5123 N.3     1  UNL1       -0.2629
     18 C         144.7720  139.7690  163.1012 C.3     1  UNL1        0.1049
     19 C         145.4013  141.0470  163.5708 C.3     1  UNL1        0.1595
     20 O         144.6290  141.9840  164.4514 O.3     1  UNL1       -0.3513
     21 C         142.7410  138.1498  163.0427 C.3     1  UNL1        0.1256
     22 C         141.2530  138.0645  162.8733 C.ar    1  UNL1        0.1045
     23 N         140.2583  137.7638  163.9551 N.ar    1  UNL1       -0.2398
     24 C         138.8890  137.7784  163.3428 C.ar    1  UNL1        0.1061
     25 C         139.0375  138.0880  161.8826 C.ar    1  UNL1        0.0572
     26 S         140.4985  138.2648  161.5925 S.2     1  UNL1       -0.0688
@<TRIPOS>BOND
     1     1     2    1
     2     2     3   ar
     3     3     4   ar
     4     4     5    1
     5     4     6   ar
     6     6     7   ar
     7     7     8   ar
     8     8     9   ar
     9     9    14    1
    10    15    14    1
    11    15    16    1
    12    16    17    1
    13    17    21    1
    14    21    22    1
    15    22    23   ar
    16    23    24   ar
    17    24    25   ar
    18    25    26   ar
    19    17    18    1
    20    18    19    1
    21    19    20    1
    22     9    10   ar
    23    10    11   ar
    24    11     2   ar
    25    10     6   ar
    26    20    15    1
    27    26    22   ar
    28     5    12    1
    29     5    13    1
@<TRIPOS>MOLECULE
*****
 26 29 0 0 0
SMALL
GASTEIGER

@<TRIPOS>ATOM
      1 C         143.1673  142.3144  167.5374 C.3     1  UNL1        0.0738
      2 C         141.9341  141.4832  167.7339 C.ar    1  UNL1        0.1427
      3 N         141.6204  140.9147  169.0860 N.ar    1  UNL1       -0.2147
      4 C         140.3872  140.0835  169.2824 C.ar    1  UNL1        0.1494
      5 N         140.0735  139.5150  170.6346 N.pl3   1  UNL1       -0.3413
      6 C         139.4679  139.8209  168.1266 C.ar    1  UNL1        0.1708
      7 N         138.1890  139.0446  168.0177 N.ar    1  UNL1       -0.1243
      8 N         137.7125  139.1334  166.5982 N.ar    1  UNL1       -0.0624
      9 N         138.6968  139.9645  165.8298 N.ar    1  UNL1       -0.2122
     10 C         139.7817  140.3894  166.7745 C.ar    1  UNL1        0.1844
     11 N         141.0148  141.2206  166.5781 N.ar    1  UNL1       -0.2104
     12 H         140.6769  139.6874  171.3932 H       1  UNL1        0.1438
     13 H         139.2642  138.9695  170.7636 H       1  UNL1        0.1438
     14 C         138.6111  140.3100  164.3727 C.3     1  UNL1        0.1616
     15 C         139.4085  139.5311  163.3690 C.3     1  UNL1        0.1556
     16 C         140.8891  139.3714  163.5485 C.3     1  UNL1        0.1044
     17 N         141.6866  138.5925  162.5448 N.3     1  UNL1       -0.2629
     18 C         141.0033  137.9731  161.3617 C.3     1  UNL1        0.1049
     19 C         139.5227  138.1328  161.1824 C.3     1  UNL1        0.1595
     20 O         138.7253  138.9117  162.1860 O.3     1  UNL1       -0.3513
     21 C         143.1673  138.4328  162.7242 C.3     1  UNL1        0.1256
     22 C         144.0338  139.6416  162.9190 C.ar    1  UNL1        0.1045
     23 N         144.2564  140.7372  161.9191 N.ar    1  UNL1       -0.2398
     24 C         145.1900  141.7398  162.5300 C.ar    1  UNL1        0.1061
     25 C         145.5444  141.2637  163.9076 C.ar    1  UNL1        0.0572
     26 S         144.8298  139.9670  164.1480 S.2     1  UNL1       -0.0688
@<TRIPOS>BOND
     1     1     2    1
     2     2     3   ar
     3     3     4   ar
     4     4     5    1
     5     4     6   ar
     6     6     7   ar
     7     7     8   ar
     8     8     9   ar
     9     9    14    1
    10    15    14    1
    11    15    16    1
    12    16    17    1
    13    17    21    1
    14    21    22    1
    15    22    23   ar
    16    23    24   ar
    17    24    25   ar
    18    25    26   ar
    19    17    18    1
    20    18    19    1
    21    19    20    1
    22     9    10   ar
    23    10    11   ar
    24    11     2   ar
    25    10     6   ar
    26    20    15    1
    27    26    22   ar
    28     5    12    1
    29     5    13    1
@<TRIPOS>MOLECULE
*****
 26 29 0 0 0
SMALL
GASTEIGER

@<TRIPOS>ATOM
      1 C         138.3282  139.1543  166.8931 C.3     1  UNL1        0.0738
      2 C         139.3956  139.8373  167.6958 C.ar    1  UNL1        0.1427
      3 N         139.3814  139.7473  169.1930 N.ar    1  UNL1       -0.2147
      4 C         140.4488  140.4303  169.9956 C.ar    1  UNL1        0.1494
      5 N         140.4345  140.3403  171.4929 N.pl3   1  UNL1       -0.3413
      6 C         141.5304  141.2033  169.3010 C.ar    1  UNL1        0.1708
      7 N         142.7060  141.9750  169.8229 N.ar    1  UNL1       -0.1243
      8 N         143.4468  142.5419  168.6483 N.ar    1  UNL1       -0.0624
      9 N         142.7291  142.1206  167.4003 N.ar    1  UNL1       -0.2122
     10 C         141.5446  141.2933  167.8037 C.ar    1  UNL1        0.1844
     11 N         140.4772  140.6103  167.0011 N.ar    1  UNL1       -0.2104
     12 H         139.7246  139.8329  171.9488 H       1  UNL1        0.1438
     13 H         141.1351  140.7886  172.0197 H       1  UNL1        0.1438
     14 C         143.1260  142.4660  165.9956 C.3     1  UNL1        0.1616
     15 C         143.1871  141.3939  164.9484 C.3     1  UNL1        0.1556
     16 C         142.0238  141.1793  164.0261 C.3     1  UNL1        0.1044
     17 N         142.0848  140.1072  162.9788 N.3     1  UNL1       -0.2629
     18 C         143.3092  139.2496  162.8538 C.3     1  UNL1        0.1049
     19 C         144.4725  139.4642  163.7762 C.3     1  UNL1        0.1595
     20 O         144.4114  140.5363  164.8234 O.3     1  UNL1       -0.3513
     21 C         140.9215  139.8926  162.0564 C.3     1  UNL1        0.1256
     22 C         139.6511  140.6637  162.2596 C.ar    1  UNL1        0.1045
     23 N         139.3609  142.0387  161.7350 N.ar    1  UNL1       -0.2398
     24 C         137.9782  142.4201  162.1742 C.ar    1  UNL1        0.1061
     25 C         137.4140  141.2807  162.9703 C.ar    1  UNL1        0.0572
     26 S         138.4479  140.1953  163.0230 S.2     1  UNL1       -0.0688
@<TRIPOS>BOND
     1     1     2    1
     2     2     3   ar
     3     3     4   ar
     4     4     5    1
     5     4     6   ar
     6     6     7   ar
     7     7     8   ar
     8     8     9   ar
     9     9    14    1
    10    15    14    1
    11    15    16    1
    12    16    17    1
    13    17    21    1
    14    21    22    1
    15    22    23   ar
    16    23    24   ar
    17    24    25   ar
    18    25    26   ar
    19    17    18    1
    20    18    19    1
    21    19    20    1
    22     9    10   ar
    23    10    11   ar
    24    11     2   ar
    25    10     6   ar
    26    20    15    1
    27    26    22   ar
    28     5    12    1
    29     5    13    1
@<TRIPOS>MOLECULE
*****
 26 29 0 0 0
SMALL
GASTEIGER

@<TRIPOS>ATOM
      1 C         143.4695  138.2594  166.4891 C.3     1  UNL1        0.0738
      2 C         142.8736  139.2785  167.4147 C.ar    1  UNL1        0.1427
      3 N         143.0576  139.1437  168.8971 N.ar    1  UNL1       -0.2147
      4 C         142.4618  140.1628  169.8226 C.ar    1  UNL1        0.1494
      5 N         142.6459  140.0280  171.3052 N.pl3   1  UNL1       -0.3413
      6 C         141.6819  141.3167  169.2655 C.ar    1  UNL1        0.1708
      7 N         140.9834  142.4681  169.9259 N.ar    1  UNL1       -0.1243
      8 N         140.3676  143.3146  168.8515 N.ar    1  UNL1       -0.0624
      9 N         140.6856  142.6862  167.5271 N.ar    1  UNL1       -0.2122
     10 C         141.4979  141.4514  167.7829 C.ar    1  UNL1        0.1844
     11 N         142.0937  140.4324  166.8575 N.ar    1  UNL1       -0.2104
     12 H         143.1577  139.2706  171.6708 H       1  UNL1        0.1438
     13 H         142.2548  140.6968  171.9127 H       1  UNL1        0.1438
     14 C         140.2651  143.2021  166.1828 C.3     1  UNL1        0.1616
     15 C         139.4876  142.3207  165.2508 C.3     1  UNL1        0.1556
     16 C         139.2776  142.7371  163.8252 C.3     1  UNL1        0.1044
     17 N         138.5001  141.8558  162.8932 N.3     1  UNL1       -0.2629
     18 C         137.9327  140.5579  163.3869 C.3     1  UNL1        0.1049
     19 C         138.1428  140.1415  164.8125 C.3     1  UNL1        0.1595
     20 O         138.9203  141.0229  165.7444 O.3     1  UNL1       -0.3513
     21 C         138.2900  142.2721  161.4675 C.3     1  UNL1        0.1256
     22 C         139.3000  143.1462  160.7849 C.ar    1  UNL1        0.1045
     23 N         139.3387  144.6452  160.8243 N.ar    1  UNL1       -0.2398
     24 C         140.5112  145.1002  160.0067 C.ar    1  UNL1        0.1061
     25 C         141.1970  143.8824  159.4621 C.ar    1  UNL1        0.0572
     26 S         140.4485  142.6748  159.9431 S.2     1  UNL1       -0.0688
@<TRIPOS>BOND
     1     1     2    1
     2     2     3   ar
     3     3     4   ar
     4     4     5    1
     5     4     6   ar
     6     6     7   ar
     7     7     8   ar
     8     8     9   ar
     9     9    14    1
    10    15    14    1
    11    15    16    1
    12    16    17    1
    13    17    21    1
    14    21    22    1
    15    22    23   ar
    16    23    24   ar
    17    24    25   ar
    18    25    26   ar
    19    17    18    1
    20    18    19    1
    21    19    20    1
    22     9    10   ar
    23    10    11   ar
    24    11     2   ar
    25    10     6   ar
    26    20    15    1
    27    26    22   ar
    28     5    12    1
    29     5    13    1
