@<TRIPOS>MOLECULE
*****
 25 26 0 0 0
SMALL
GASTEIGER

@<TRIPOS>ATOM
      1 C         139.2624  143.7644  161.6875 C.ar    1  UNL1        0.1351
      2 N         139.9465  143.1132  162.8527 N.ar    1  UNL1       -0.2297
      3 C         138.8904  142.5230  163.7396 C.ar    1  UNL1        0.0996
      4 C         137.5537  142.8094  163.1224 C.ar    1  UNL1        0.0927
      5 N         137.7835  143.5767  161.8541 N.ar    1  UNL1       -0.3385
      6 H         137.0862  143.9002  161.2391 H       1  UNL1        0.1672
      7 C         139.1293  141.7772  165.0190 C.ar    1  UNL1        0.0194
      8 C         140.0177  142.3649  166.0750 C.ar    1  UNL1        0.0047
      9 C         140.2565  141.6192  167.3544 C.ar    1  UNL1        0.0372
     10 C         139.6069  140.2857  167.5777 C.ar    1  UNL1        0.1468
     11 C         138.7185  139.6980  166.5217 C.ar    1  UNL1        0.0372
     12 C         138.4797  140.4437  165.2423 C.ar    1  UNL1        0.0047
     13 O         139.8457  139.5399  168.8571 O.3     1  UNL1       -0.4045
     14 C         140.1654  140.2918  170.1150 C.3     1  UNL1        0.5753
     15 F         140.4851  141.0438  171.3730 F       1  UNL1       -0.1328
     16 F         138.7859  140.8808  170.1136 F       1  UNL1       -0.1328
     17 F         141.5449  139.7029  170.1165 F       1  UNL1       -0.1328
     18 N         139.3155  143.5222  159.5807 N.3     1  UNL1       -0.3132
     19 C         139.9384  144.4780  160.5545 C.3     1  UNL1        0.1561
     20 H         139.6078  143.7630  158.6336 H       1  UNL1        0.1193
     21 H         138.2995  143.5816  159.6485 H       1  UNL1        0.1193
     22 C         140.6145  145.1917  159.4215 C.3     1  UNL1        0.2172
     23 F         139.8704  146.2349  158.6418 F       1  UNL1       -0.2323
     24 C         140.5614  145.4339  161.5282 C.3     1  UNL1        0.2172
     25 F         139.8409  146.6935  161.9079 F       1  UNL1       -0.2323
@<TRIPOS>BOND
     1    18    19    1
     2    19    22    1
     3    22    23    1
     4    19    24    1
     5    24    25    1
     6    19     1    1
     7     1     2   ar
     8     2     3   ar
     9     3     7    1
    10     7     8   ar
    11     8     9   ar
    12     9    10   ar
    13    10    13    1
    14    13    14    1
    15    14    15    1
    16    14    16    1
    17    14    17    1
    18    10    11   ar
    19    11    12   ar
    20     3     4   ar
    21     4     5   ar
    22     5     1   ar
    23    12     7   ar
    24    18    20    1
    25    18    21    1
    26     5     6    1
@<TRIPOS>MOLECULE
*****
 25 26 0 0 0
SMALL
GASTEIGER

@<TRIPOS>ATOM
      1 C         141.9594  144.4400  161.6309 C.ar    1  UNL1        0.1351
      2 N         141.2756  143.7070  162.7467 N.ar    1  UNL1       -0.2297
      3 C         142.1858  143.7240  163.9389 C.ar    1  UNL1        0.0996
      4 C         143.4321  144.4676  163.5599 C.ar    1  UNL1        0.0927
      5 N         143.2923  144.9101  162.1335 N.ar    1  UNL1       -0.3385
      6 H         143.9583  145.4197  161.6177 H       1  UNL1        0.1672
      7 C         141.8998  143.1059  165.2754 C.ar    1  UNL1        0.0194
      8 C         143.0045  142.4518  166.0511 C.ar    1  UNL1        0.0047
      9 C         142.7185  141.8338  167.3875 C.ar    1  UNL1        0.0372
     10 C         141.3277  141.8698  167.9483 C.ar    1  UNL1        0.1468
     11 C         140.2230  142.5239  167.1726 C.ar    1  UNL1        0.0372
     12 C         140.5090  143.1419  165.8362 C.ar    1  UNL1        0.0047
     13 O         141.0417  141.2518  169.2849 O.3     1  UNL1       -0.4045
     14 C         139.6471  140.8194  169.6282 C.3     1  UNL1        0.5753
     15 F         138.2524  140.3870  169.9716 F       1  UNL1       -0.1328
     16 F         139.4750  142.0461  170.4740 F       1  UNL1       -0.1328
     17 F         139.8192  139.5926  168.7824 F       1  UNL1       -0.1328
     18 N         142.6588  144.0897  159.6591 N.3     1  UNL1       -0.3132
     19 C         141.4073  144.6637  160.2542 C.3     1  UNL1        0.1561
     20 H         142.5886  144.1030  158.6416 H       1  UNL1        0.1193
     21 H         142.7777  143.1285  159.9792 H       1  UNL1        0.1193
     22 C         140.8553  144.8874  158.8776 C.3     1  UNL1        0.2172
     23 F         139.8744  145.9957  158.6339 F       1  UNL1       -0.2323
     24 C         140.1558  145.2377  160.8494 C.3     1  UNL1        0.2172
     25 F         140.2176  146.5084  161.6440 F       1  UNL1       -0.2323
@<TRIPOS>BOND
     1    18    19    1
     2    19    22    1
     3    22    23    1
     4    19    24    1
     5    24    25    1
     6    19     1    1
     7     1     2   ar
     8     2     3   ar
     9     3     7    1
    10     7     8   ar
    11     8     9   ar
    12     9    10   ar
    13    10    13    1
    14    13    14    1
    15    14    15    1
    16    14    16    1
    17    14    17    1
    18    10    11   ar
    19    11    12   ar
    20     3     4   ar
    21     4     5   ar
    22     5     1   ar
    23    12     7   ar
    24    18    20    1
    25    18    21    1
    26     5     6    1
@<TRIPOS>MOLECULE
*****
 25 26 0 0 0
SMALL
GASTEIGER

@<TRIPOS>ATOM
      1 C         141.9559  138.0867  162.5442 C.ar    1  UNL1        0.1351
      2 N         142.0454  139.1615  163.5867 N.ar    1  UNL1       -0.2297
      3 C         141.4786  138.6167  164.8641 C.ar    1  UNL1        0.0996
      4 C         141.0389  137.2051  164.6113 C.ar    1  UNL1        0.0927
      5 N         141.3338  136.8775  163.1775 N.ar    1  UNL1       -0.3385
      6 H         141.1512  136.0195  162.7306 H       1  UNL1        0.1672
      7 C         141.3706  139.3541  166.1660 C.ar    1  UNL1        0.0194
      8 C         140.0745  140.0001  166.5566 C.ar    1  UNL1        0.0047
      9 C         139.9665  140.7375  167.8584 C.ar    1  UNL1        0.0372
     10 C         141.1546  140.8287  168.7695 C.ar    1  UNL1        0.1468
     11 C         142.4507  140.1826  168.3788 C.ar    1  UNL1        0.0372
     12 C         142.5587  139.4453  167.0771 C.ar    1  UNL1        0.0047
     13 O         141.0465  141.5661  170.0713 O.3     1  UNL1       -0.4045
     14 C         140.7382  143.0340  170.0785 C.3     1  UNL1        0.5753
     15 F         140.4299  144.5020  170.0856 F       1  UNL1       -0.1328
     16 F         142.1376  143.3302  169.6268 F       1  UNL1       -0.1328
     17 F         139.3388  142.7379  170.5301 F       1  UNL1       -0.1328
     18 N         143.6998  137.5250  161.4750 N.3     1  UNL1       -0.3132
     19 C         142.4090  138.2009  161.1189 C.3     1  UNL1        0.1561
     20 H         144.2829  137.4450  160.6419 H       1  UNL1        0.1193
     21 H         143.5056  136.5944  161.8448 H       1  UNL1        0.1193
     22 C         142.8621  138.3151  159.6935 C.3     1  UNL1        0.2172
     23 F         142.9161  137.0942  158.8237 F       1  UNL1       -0.2323
     24 C         141.1182  138.8768  160.7627 C.3     1  UNL1        0.2172
     25 F         140.1700  138.2238  159.8013 F       1  UNL1       -0.2323
@<TRIPOS>BOND
     1    18    19    1
     2    19    22    1
     3    22    23    1
     4    19    24    1
     5    24    25    1
     6    19     1    1
     7     1     2   ar
     8     2     3   ar
     9     3     7    1
    10     7     8   ar
    11     8     9   ar
    12     9    10   ar
    13    10    13    1
    14    13    14    1
    15    14    15    1
    16    14    16    1
    17    14    17    1
    18    10    11   ar
    19    11    12   ar
    20     3     4   ar
    21     4     5   ar
    22     5     1   ar
    23    12     7   ar
    24    18    20    1
    25    18    21    1
    26     5     6    1
@<TRIPOS>MOLECULE
*****
 25 26 0 0 0
SMALL
GASTEIGER

@<TRIPOS>ATOM
      1 C         141.7490  144.6748  162.0830 C.ar    1  UNL1        0.1351
      2 N         141.1605  143.9172  163.2361 N.ar    1  UNL1       -0.2297
      3 C         142.2266  143.7593  164.2795 C.ar    1  UNL1        0.0996
      4 C         143.4740  144.4193  163.7712 C.ar    1  UNL1        0.0927
      5 N         143.1789  144.9852  162.4138 N.ar    1  UNL1       -0.3385
      6 H         143.8124  145.4744  161.8405 H       1  UNL1        0.1672
      7 C         142.0723  143.0634  165.5994 C.ar    1  UNL1        0.0194
      8 C         140.7072  142.8699  166.1901 C.ar    1  UNL1        0.0047
      9 C         140.5530  142.1741  167.5100 C.ar    1  UNL1        0.0372
     10 C         141.7639  141.6718  168.2391 C.ar    1  UNL1        0.1468
     11 C         143.1289  141.8654  167.6483 C.ar    1  UNL1        0.0372
     12 C         143.2832  142.5612  166.3285 C.ar    1  UNL1        0.0047
     13 O         141.6096  140.9760  169.5590 O.3     1  UNL1       -0.4045
     14 C         142.1781  139.6016  169.7532 C.3     1  UNL1        0.5753
     15 F         142.7467  138.2272  169.9475 F       1  UNL1       -0.1328
     16 F         142.8456  140.0564  171.0172 F       1  UNL1       -0.1328
     17 F         141.5106  139.1469  168.4893 F       1  UNL1       -0.1328
     18 N         142.1843  144.5352  160.0116 N.3     1  UNL1       -0.3132
     19 C         141.0334  145.0553  160.8208 C.3     1  UNL1        0.1561
     20 H         141.9864  144.6613  159.0189 H       1  UNL1        0.1193
     21 H         142.3176  143.5433  160.2084 H       1  UNL1        0.1193
     22 C         140.3178  145.4358  159.5587 C.3     1  UNL1        0.2172
     23 F         141.0978  145.9066  158.3671 F       1  UNL1       -0.2323
     24 C         139.8825  145.5754  161.6301 C.3     1  UNL1        0.2172
     25 F         139.2350  146.8775  161.2627 F       1  UNL1       -0.2323
@<TRIPOS>BOND
     1    18    19    1
     2    19    22    1
     3    22    23    1
     4    19    24    1
     5    24    25    1
     6    19     1    1
     7     1     2   ar
     8     2     3   ar
     9     3     7    1
    10     7     8   ar
    11     8     9   ar
    12     9    10   ar
    13    10    13    1
    14    13    14    1
    15    14    15    1
    16    14    16    1
    17    14    17    1
    18    10    11   ar
    19    11    12   ar
    20     3     4   ar
    21     4     5   ar
    22     5     1   ar
    23    12     7   ar
    24    18    20    1
    25    18    21    1
    26     5     6    1
@<TRIPOS>MOLECULE
*****
 25 26 0 0 0
SMALL
GASTEIGER

@<TRIPOS>ATOM
      1 C         139.5891  140.2134  169.0037 C.ar    1  UNL1        0.1351
      2 N         139.9037  140.1819  167.5374 N.ar    1  UNL1       -0.2297
      3 C         138.8018  139.4382  166.8427 C.ar    1  UNL1        0.0996
      4 C         137.8060  139.0101  167.8796 C.ar    1  UNL1        0.0927
      5 N         138.2926  139.4891  169.2152 N.ar    1  UNL1       -0.3385
      6 H         137.8404  139.3523  170.0789 H       1  UNL1        0.1672
      7 C         138.7114  139.1698  165.3696 C.ar    1  UNL1        0.0194
      8 C         139.1065  137.8288  164.8260 C.ar    1  UNL1        0.0047
      9 C         139.0162  137.5604  163.3530 C.ar    1  UNL1        0.0372
     10 C         138.5307  138.6330  162.4236 C.ar    1  UNL1        0.1468
     11 C         138.1356  139.9741  162.9672 C.ar    1  UNL1        0.0372
     12 C         138.2260  140.2424  164.4402 C.ar    1  UNL1        0.0047
     13 O         138.4404  138.3646  160.9505 O.3     1  UNL1       -0.4045
     14 C         139.1617  139.2530  159.9807 C.3     1  UNL1        0.5753
     15 F         139.8830  140.1413  159.0108 F       1  UNL1       -0.1328
     16 F         140.4768  138.7697  160.5161 F       1  UNL1       -0.1328
     17 F         137.8465  139.7362  159.4453 F       1  UNL1       -0.1328
     18 N         139.9710  139.8161  171.0521 N.3     1  UNL1       -0.3132
     19 C         140.4242  140.8563  170.0711 C.3     1  UNL1        0.1561
     20 H         140.4036  139.9924  171.9588 H       1  UNL1        0.1193
     21 H         140.2450  138.8919  170.7187 H       1  UNL1        0.1193
     22 C         141.2593  141.4991  171.1384 C.3     1  UNL1        0.2172
     23 F         142.2608  142.5544  170.7732 F       1  UNL1       -0.2323
     24 C         140.8774  141.8965  169.0900 C.3     1  UNL1        0.2172
     25 F         140.0945  143.1655  168.9271 F       1  UNL1       -0.2323
@<TRIPOS>BOND
     1    18    19    1
     2    19    22    1
     3    22    23    1
     4    19    24    1
     5    24    25    1
     6    19     1    1
     7     1     2   ar
     8     2     3   ar
     9     3     7    1
    10     7     8   ar
    11     8     9   ar
    12     9    10   ar
    13    10    13    1
    14    13    14    1
    15    14    15    1
    16    14    16    1
    17    14    17    1
    18    10    11   ar
    19    11    12   ar
    20     3     4   ar
    21     4     5   ar
    22     5     1   ar
    23    12     7   ar
    24    18    20    1
    25    18    21    1
    26     5     6    1
@<TRIPOS>MOLECULE
*****
 25 26 0 0 0
SMALL
GASTEIGER

@<TRIPOS>ATOM
      1 C         142.5305  144.1270  161.7437 C.ar    1  UNL1        0.1351
      2 N         141.8268  143.3663  162.8282 N.ar    1  UNL1       -0.2297
      3 C         142.5587  143.6093  164.1148 C.ar    1  UNL1        0.0996
      4 C         143.7148  144.5201  163.8255 C.ar    1  UNL1        0.0927
      5 N         143.6975  144.8401  162.3601 N.ar    1  UNL1       -0.3385
      6 H         144.3392  145.4168  161.8861 H       1  UNL1        0.1672
      7 C         142.1978  143.0411  165.4553 C.ar    1  UNL1        0.0194
      8 C         140.7579  142.9351  165.8620 C.ar    1  UNL1        0.0047
      9 C         140.3970  142.3669  167.2025 C.ar    1  UNL1        0.0372
     10 C         141.4761  141.9048  168.1363 C.ar    1  UNL1        0.1468
     11 C         142.9160  142.0108  167.7297 C.ar    1  UNL1        0.0372
     12 C         143.2768  142.5790  166.3892 C.ar    1  UNL1        0.0047
     13 O         141.1152  141.3366  169.4769 O.3     1  UNL1       -0.4045
     14 C         139.6981  140.9388  169.7660 C.3     1  UNL1        0.5753
     15 F         138.2810  140.5409  170.0551 F       1  UNL1       -0.1328
     16 F         139.9408  139.6062  169.1216 F       1  UNL1       -0.1328
     17 F         139.4554  142.2714  170.4103 F       1  UNL1       -0.1328
     18 N         141.4397  145.4763  160.5233 N.3     1  UNL1       -0.3132
     19 C         142.1366  144.1675  160.2970 C.3     1  UNL1        0.1561
     20 H         141.0292  145.7989  159.6471 H       1  UNL1        0.1193
     21 H         142.1124  146.1662  160.8580 H       1  UNL1        0.1193
     22 C         141.7427  144.2079  158.8502 C.3     1  UNL1        0.2172
     23 F         140.7588  145.2329  158.3692 F       1  UNL1       -0.2323
     24 C         142.8335  142.8586  160.0706 C.3     1  UNL1        0.2172
     25 F         144.1471  142.8236  159.3473 F       1  UNL1       -0.2323
@<TRIPOS>BOND
     1    18    19    1
     2    19    22    1
     3    22    23    1
     4    19    24    1
     5    24    25    1
     6    19     1    1
     7     1     2   ar
     8     2     3   ar
     9     3     7    1
    10     7     8   ar
    11     8     9   ar
    12     9    10   ar
    13    10    13    1
    14    13    14    1
    15    14    15    1
    16    14    16    1
    17    14    17    1
    18    10    11   ar
    19    11    12   ar
    20     3     4   ar
    21     4     5   ar
    22     5     1   ar
    23    12     7   ar
    24    18    20    1
    25    18    21    1
    26     5     6    1
@<TRIPOS>MOLECULE
*****
 25 26 0 0 0
SMALL
GASTEIGER

@<TRIPOS>ATOM
      1 C         143.0601  143.6175  161.5783 C.ar    1  UNL1        0.1351
      2 N         142.4965  142.7657  162.6768 N.ar    1  UNL1       -0.2297
      3 C         142.6287  143.5230  163.9648 C.ar    1  UNL1        0.0996
      4 C         143.2741  144.8429  163.6624 C.ar    1  UNL1        0.0927
      5 N         143.5407  144.9013  162.1874 N.ar    1  UNL1       -0.3385
      6 H         143.9579  145.6506  161.7040 H       1  UNL1        0.1672
      7 C         142.1922  143.0444  165.3178 C.ar    1  UNL1        0.0194
      8 C         143.2035  142.5023  166.2839 C.ar    1  UNL1        0.0047
      9 C         142.7669  142.0238  167.6367 C.ar    1  UNL1        0.0372
     10 C         141.3191  142.0873  168.0236 C.ar    1  UNL1        0.1468
     11 C         140.3078  142.6295  167.0575 C.ar    1  UNL1        0.0372
     12 C         140.7443  143.1080  165.7046 C.ar    1  UNL1        0.0047
     13 O         140.8825  141.6088  169.3766 O.3     1  UNL1       -0.4045
     14 C         140.0298  142.4869  170.2436 C.3     1  UNL1        0.5753
     15 F         139.1770  143.3650  171.1106 F       1  UNL1       -0.1328
     16 F         141.1147  143.5224  170.2618 F       1  UNL1       -0.1328
     17 F         138.9448  141.4513  170.2253 F       1  UNL1       -0.1328
     18 N         142.2144  144.3901  159.7928 N.3     1  UNL1       -0.3132
     19 C         143.1307  143.2501  160.1257 C.3     1  UNL1        0.1561
     20 H         142.0520  144.4129  158.7861 H       1  UNL1        0.1193
     21 H         142.6423  145.2676  160.0882 H       1  UNL1        0.1193
     22 C         143.2014  142.8827  158.6731 C.3     1  UNL1        0.2172
     23 F         143.2426  143.9584  157.6286 F       1  UNL1       -0.2323
     24 C         144.0471  142.1102  160.4586 C.3     1  UNL1        0.2172
     25 F         145.3488  142.3733  161.1557 F       1  UNL1       -0.2323
@<TRIPOS>BOND
     1    18    19    1
     2    19    22    1
     3    22    23    1
     4    19    24    1
     5    24    25    1
     6    19     1    1
     7     1     2   ar
     8     2     3   ar
     9     3     7    1
    10     7     8   ar
    11     8     9   ar
    12     9    10   ar
    13    10    13    1
    14    13    14    1
    15    14    15    1
    16    14    16    1
    17    14    17    1
    18    10    11   ar
    19    11    12   ar
    20     3     4   ar
    21     4     5   ar
    22     5     1   ar
    23    12     7   ar
    24    18    20    1
    25    18    21    1
    26     5     6    1
@<TRIPOS>MOLECULE
*****
 25 26 0 0 0
SMALL
GASTEIGER

@<TRIPOS>ATOM
      1 C         139.5076  140.1081  167.9576 C.ar    1  UNL1        0.1351
      2 N         139.7838  141.1748  166.9398 N.ar    1  UNL1       -0.2297
      3 C         139.0448  140.8196  165.6837 C.ar    1  UNL1        0.0996
      4 C         138.3117  139.5334  165.9252 C.ar    1  UNL1        0.0927
      5 N         138.5977  139.0937  167.3305 N.ar    1  UNL1       -0.3385
      6 H         138.2494  138.2818  167.7650 H       1  UNL1        0.1672
      7 C         139.0397  141.6117  164.4098 C.ar    1  UNL1        0.0194
      8 C         137.7829  142.2922  163.9548 C.ar    1  UNL1        0.0047
      9 C         137.7778  143.0842  162.6810 C.ar    1  UNL1        0.0372
     10 C         139.0297  143.1956  161.8622 C.ar    1  UNL1        0.1468
     11 C         140.2866  142.5151  162.3172 C.ar    1  UNL1        0.0372
     12 C         140.2916  141.7231  163.5910 C.ar    1  UNL1        0.0047
     13 O         139.0246  143.9877  160.5883 O.3     1  UNL1       -0.4045
     14 C         140.2213  144.8097  160.2115 C.3     1  UNL1        0.5753
     15 F         141.4182  145.6318  159.8346 F       1  UNL1       -0.1328
     16 F         140.6083  143.7793  159.1925 F       1  UNL1       -0.1328
     17 F         139.8344  145.8401  161.2305 F       1  UNL1       -0.1328
     18 N         138.6472  140.0020  169.8937 N.3     1  UNL1       -0.3132
     19 C         140.0464  140.0637  169.3567 C.3     1  UNL1        0.1561
     20 H         138.6755  139.9595  170.9124 H       1  UNL1        0.1193
     21 H         138.1804  139.1705  169.5315 H       1  UNL1        0.1193
     22 C         140.5853  140.0192  170.7558 C.3     1  UNL1        0.2172
     23 F         141.1478  141.2604  171.3827 F       1  UNL1       -0.2323
     24 C         141.4457  140.1254  168.8198 C.3     1  UNL1        0.2172
     25 F         142.3856  138.9778  169.0421 F       1  UNL1       -0.2323
@<TRIPOS>BOND
     1    18    19    1
     2    19    22    1
     3    22    23    1
     4    19    24    1
     5    24    25    1
     6    19     1    1
     7     1     2   ar
     8     2     3   ar
     9     3     7    1
    10     7     8   ar
    11     8     9   ar
    12     9    10   ar
    13    10    13    1
    14    13    14    1
    15    14    15    1
    16    14    16    1
    17    14    17    1
    18    10    11   ar
    19    11    12   ar
    20     3     4   ar
    21     4     5   ar
    22     5     1   ar
    23    12     7   ar
    24    18    20    1
    25    18    21    1
    26     5     6    1
@<TRIPOS>MOLECULE
*****
 25 26 0 0 0
SMALL
GASTEIGER

@<TRIPOS>ATOM
      1 C         139.5582  144.7126  162.2848 C.ar    1  UNL1        0.1351
      2 N         140.6433  143.7702  161.8555 N.ar    1  UNL1       -0.2297
      3 C         141.1881  144.2566  160.5453 C.ar    1  UNL1        0.0996
      4 C         140.4398  145.4997  160.1649 C.ar    1  UNL1        0.0927
      5 N         139.4324  145.7815  161.2400 N.ar    1  UNL1       -0.3385
      6 H         138.7998  146.5357  161.2569 H       1  UNL1        0.1672
      7 C         142.2882  143.6129  159.7543 C.ar    1  UNL1        0.0194
      8 C         142.4375  143.9160  158.2929 C.ar    1  UNL1        0.0047
      9 C         143.5376  143.2723  157.5021 C.ar    1  UNL1        0.0372
     10 C         144.4883  142.3255  158.1727 C.ar    1  UNL1        0.1468
     11 C         144.3390  142.0224  159.6341 C.ar    1  UNL1        0.0372
     12 C         143.2390  142.6661  160.4249 C.ar    1  UNL1        0.0047
     13 O         145.5885  141.6818  157.3817 O.3     1  UNL1       -0.4045
     14 C         146.4868  142.5230  156.5243 C.3     1  UNL1        0.5753
     15 F         147.3852  143.3642  155.6667 F       1  UNL1       -0.1328
     16 F         145.7502  142.0630  155.3013 F       1  UNL1       -0.1328
     17 F         147.2235  142.9829  157.7473 F       1  UNL1       -0.1328
     18 N         137.4960  144.4645  162.7158 N.3     1  UNL1       -0.3132
     19 C         138.7422  144.6051  163.5388 C.3     1  UNL1        0.1561
     20 H         136.6904  144.3637  163.3332 H       1  UNL1        0.1193
     21 H         137.5731  143.6401  162.1202 H       1  UNL1        0.1193
     22 C         137.9261  144.4975  164.7928 C.3     1  UNL1        0.2172
     23 F         138.2227  145.3922  165.9596 F       1  UNL1       -0.2323
     24 C         139.9883  144.7456  164.3618 C.3     1  UNL1        0.2172
     25 F         140.4909  143.5837  165.1662 F       1  UNL1       -0.2323
@<TRIPOS>BOND
     1    18    19    1
     2    19    22    1
     3    22    23    1
     4    19    24    1
     5    24    25    1
     6    19     1    1
     7     1     2   ar
     8     2     3   ar
     9     3     7    1
    10     7     8   ar
    11     8     9   ar
    12     9    10   ar
    13    10    13    1
    14    13    14    1
    15    14    15    1
    16    14    16    1
    17    14    17    1
    18    10    11   ar
    19    11    12   ar
    20     3     4   ar
    21     4     5   ar
    22     5     1   ar
    23    12     7   ar
    24    18    20    1
    25    18    21    1
    26     5     6    1
