@<TRIPOS>MOLECULE
*****
 32 36 0 0 0
SMALL
GASTEIGER

@<TRIPOS>ATOM
      1 N         140.7133  141.2456  168.4053 N.3     1  UNL1       -0.2750
      2 C         141.4867  142.3820  169.0058 C.3     1  UNL1        0.0594
      3 C         142.1077  141.8970  170.2821 C.3     1  UNL1        0.0174
      4 C         141.7182  140.4607  170.4705 C.3     1  UNL1        0.0174
      5 C         140.8565  140.0581  169.3107 C.3     1  UNL1        0.0594
      6 C         140.0325  139.9378  168.0513 C.3     1  UNL1        0.0386
      7 C         139.9800  141.2033  167.2477 C.3     1  UNL1        0.0893
      8 C         140.7072  142.4254  167.7250 C.3     1  UNL1        0.0386
      9 N         139.2005  141.2467  165.9669 N.ar    1  UNL1       -0.3167
     10 C         138.5056  140.0865  165.3180 C.ar    1  UNL1        0.1207
     11 C         138.4683  138.6792  165.8358 C.3     1  UNL1        0.0718
     12 N         137.8546  140.5807  164.0602 N.ar    1  UNL1       -0.2309
     13 C         138.1472  142.0463  163.9318 C.ar    1  UNL1        0.0983
     14 C         137.7636  143.0592  162.8942 C.ar    1  UNL1        0.0206
     15 C         138.2118  144.4837  163.0349 C.ar    1  UNL1        0.0016
     16 C         139.0436  144.8953  164.2134 C.ar    1  UNL1        0.0016
     17 C         139.4272  143.8824  165.2510 C.ar    1  UNL1        0.0188
     18 C         138.9789  142.4579  165.1103 C.ar    1  UNL1        0.0785
     19 C         139.9338  141.2890  167.1246 C.3     1  UNL1        0.0741
     20 C         140.5764  140.8554  165.8404 C.3     1  UNL1        0.0414
     21 C         142.0523  141.0349  165.6422 C.3     1  UNL1        0.0954
     22 C         142.5613  142.1175  164.7372 C.ar    1  UNL1       -0.0045
     23 C         143.5442  143.1261  165.2536 C.ar    1  UNL1       -0.0027
     24 C         144.0532  144.2087  164.3486 C.ar    1  UNL1       -0.0003
     25 C         143.5794  144.2825  162.9273 C.ar    1  UNL1       -0.0000
     26 C         142.5966  143.2739  162.4109 C.ar    1  UNL1       -0.0003
     27 C         142.0875  142.1913  163.3158 C.ar    1  UNL1       -0.0027
     28 C         144.0270  137.7666  166.7236 C.3     1  UNL1        0.0946
     29 C         143.0600  138.6696  166.0168 C.2     1  UNL1        0.2232
     30 O         142.1337  138.1104  164.9780 O.2     1  UNL1       -0.2751
     31 N         143.0193  140.1318  166.3490 N.am    1  UNL1       -0.3021
     32 H         143.6273  140.4988  167.0308 H       1  UNL1        0.1497
@<TRIPOS>BOND
     1    28    29    1
     2    29    30    2
     3    29    31   am
     4    31    21    1
     5    21    20    1
     6    20    19    1
     7    19     1    1
     8     1     2    1
     9     2     3    1
    10     3     4    1
    11     5     4    1
    12     5     6    1
    13     6     7    1
    14     7     9    1
    15     9    10   ar
    16    10    11    1
    17    10    12   ar
    18    12    13   ar
    19    13    14   ar
    20    14    15   ar
    21    15    16   ar
    22    16    17   ar
    23    17    18   ar
    24     7     8    1
    25    21    22    1
    26    22    23   ar
    27    23    24   ar
    28    24    25   ar
    29    25    26   ar
    30    26    27   ar
    31     5     1    1
    32    18     9   ar
    33    27    22   ar
    34     8     2    1
    35    18    13   ar
    36    31    32    1
@<TRIPOS>MOLECULE
*****
 32 36 0 0 0
SMALL
GASTEIGER

@<TRIPOS>ATOM
      1 N         140.0327  138.7747  164.0234 N.3     1  UNL1       -0.2750
      2 C         140.6563  138.5471  162.6782 C.3     1  UNL1        0.0594
      3 C         139.5516  138.3734  161.6785 C.3     1  UNL1        0.0174
      4 C         138.2452  138.4938  162.4058 C.3     1  UNL1        0.0174
      5 C         138.5425  138.7418  163.8550 C.3     1  UNL1        0.0594
      6 C         139.1308  138.9772  165.2253 C.3     1  UNL1        0.0386
      7 C         140.6307  138.9838  165.2392 C.3     1  UNL1        0.0893
      8 C         141.3935  138.7688  163.9656 C.3     1  UNL1        0.0386
      9 N         141.3678  139.2055  166.5267 N.ar    1  UNL1       -0.3167
     10 C         142.8391  139.0112  166.7449 C.ar    1  UNL1        0.1207
     11 C         143.8315  138.5612  165.7141 C.3     1  UNL1        0.0718
     12 N         143.1436  139.3460  168.1750 N.ar    1  UNL1       -0.2309
     13 C         141.8606  139.7472  168.8406 C.ar    1  UNL1        0.0983
     14 C         141.5499  140.1803  170.2426 C.ar    1  UNL1        0.0206
     15 C         140.1417  140.5266  170.6259 C.ar    1  UNL1        0.0016
     16 C         139.0442  140.4397  169.6072 C.ar    1  UNL1        0.0016
     17 C         139.3549  140.0066  168.2051 C.ar    1  UNL1        0.0188
     18 C         140.7631  139.6603  167.8218 C.ar    1  UNL1        0.0785
     19 C         140.7698  138.9964  165.3107 C.3     1  UNL1        0.0741
     20 C         140.9997  140.3911  165.8129 C.3     1  UNL1        0.0414
     21 C         141.2156  141.5123  164.8403 C.3     1  UNL1        0.0954
     22 C         140.0794  142.4239  164.4821 C.ar    1  UNL1       -0.0045
     23 C         139.3433  142.2324  163.1893 C.ar    1  UNL1       -0.0027
     24 C         138.2071  143.1439  162.8311 C.ar    1  UNL1       -0.0003
     25 C         137.8072  144.2468  163.7658 C.ar    1  UNL1       -0.0000
     26 C         138.5433  144.4383  165.0586 C.ar    1  UNL1       -0.0003
     27 C         139.6795  143.5268  165.4168 C.ar    1  UNL1       -0.0027
     28 C         145.0524  142.4483  164.4486 C.3     1  UNL1        0.0946
     29 C         143.7003  142.2385  165.0631 C.2     1  UNL1        0.2232
     30 O         143.4805  142.5449  166.5149 O.2     1  UNL1       -0.2751
     31 N         142.5679  141.7222  164.2258 N.am    1  UNL1       -0.3021
     32 H         142.7121  141.5211  163.2729 H       1  UNL1        0.1497
@<TRIPOS>BOND
     1    28    29    1
     2    29    30    2
     3    29    31   am
     4    31    21    1
     5    21    20    1
     6    20    19    1
     7    19     1    1
     8     1     2    1
     9     2     3    1
    10     3     4    1
    11     5     4    1
    12     5     6    1
    13     6     7    1
    14     7     9    1
    15     9    10   ar
    16    10    11    1
    17    10    12   ar
    18    12    13   ar
    19    13    14   ar
    20    14    15   ar
    21    15    16   ar
    22    16    17   ar
    23    17    18   ar
    24     7     8    1
    25    21    22    1
    26    22    23   ar
    27    23    24   ar
    28    24    25   ar
    29    25    26   ar
    30    26    27   ar
    31     5     1    1
    32    18     9   ar
    33    27    22   ar
    34     8     2    1
    35    18    13   ar
    36    31    32    1
@<TRIPOS>MOLECULE
*****
 32 36 0 0 0
SMALL
GASTEIGER

@<TRIPOS>ATOM
      1 N         141.7706  139.1770  164.0565 N.3     1  UNL1       -0.2750
      2 C         141.4408  139.6246  162.6633 C.3     1  UNL1        0.0594
      3 C         141.0611  138.4130  161.8647 C.3     1  UNL1        0.0174
      4 C         141.1561  137.2165  162.7643 C.3     1  UNL1        0.0174
      5 C         141.5947  137.6886  164.1189 C.3     1  UNL1        0.0594
      6 C         142.0357  138.4374  165.3534 C.3     1  UNL1        0.0386
      7 C         142.1685  139.9162  165.1404 C.3     1  UNL1        0.0893
      8 C         141.8710  140.5099  163.7953 C.3     1  UNL1        0.0386
      9 N         142.5987  140.8014  166.2723 N.ar    1  UNL1       -0.3167
     10 C         143.0767  142.2180  166.1512 C.ar    1  UNL1        0.1207
     11 C         143.2085  142.9982  164.8768 C.3     1  UNL1        0.0718
     12 N         143.3998  142.7175  167.5281 N.ar    1  UNL1       -0.2309
     13 C         143.1216  141.6096  168.5003 C.ar    1  UNL1        0.0983
     14 C         143.2550  141.5262  169.9920 C.ar    1  UNL1        0.0206
     15 C         142.8934  140.2584  170.7075 C.ar    1  UNL1        0.0016
     16 C         142.3982  139.0742  169.9314 C.ar    1  UNL1        0.0016
     17 C         142.2647  139.1577  168.4397 C.ar    1  UNL1        0.0188
     18 C         142.6264  140.4254  167.7242 C.ar    1  UNL1        0.0785
     19 C         142.2008  140.0621  165.1884 C.3     1  UNL1        0.0741
     20 C         141.1746  140.6606  166.1043 C.3     1  UNL1        0.0414
     21 C         139.7460  140.7700  165.6606 C.3     1  UNL1        0.0954
     22 C         139.2086  142.0853  165.1797 C.ar    1  UNL1       -0.0045
     23 C         139.6341  143.3588  165.8483 C.ar    1  UNL1       -0.0027
     24 C         139.0967  144.6741  165.3674 C.ar    1  UNL1       -0.0003
     25 C         138.1339  144.7158  164.2179 C.ar    1  UNL1       -0.0000
     26 C         137.7085  143.4423  163.5493 C.ar    1  UNL1       -0.0003
     27 C         138.2458  142.1270  164.0302 C.ar    1  UNL1       -0.0027
     28 C         137.5072  137.8030  167.0517 C.3     1  UNL1        0.0946
     29 C         138.3986  139.0088  167.0145 C.2     1  UNL1        0.2232
     30 O         138.8338  139.6594  168.2940 O.2     1  UNL1       -0.2751
     31 N         138.8546  139.5640  165.6978 N.am    1  UNL1       -0.3021
     32 H         138.5689  139.1370  164.8580 H       1  UNL1        0.1497
@<TRIPOS>BOND
     1    28    29    1
     2    29    30    2
     3    29    31   am
     4    31    21    1
     5    21    20    1
     6    20    19    1
     7    19     1    1
     8     1     2    1
     9     2     3    1
    10     3     4    1
    11     5     4    1
    12     5     6    1
    13     6     7    1
    14     7     9    1
    15     9    10   ar
    16    10    11    1
    17    10    12   ar
    18    12    13   ar
    19    13    14   ar
    20    14    15   ar
    21    15    16   ar
    22    16    17   ar
    23    17    18   ar
    24     7     8    1
    25    21    22    1
    26    22    23   ar
    27    23    24   ar
    28    24    25   ar
    29    25    26   ar
    30    26    27   ar
    31     5     1    1
    32    18     9   ar
    33    27    22   ar
    34     8     2    1
    35    18    13   ar
    36    31    32    1
@<TRIPOS>MOLECULE
*****
 32 36 0 0 0
SMALL
GASTEIGER

@<TRIPOS>ATOM
      1 N         141.2229  140.0069  167.9806 N.3     1  UNL1       -0.2750
      2 C         140.0942  140.6307  168.7467 C.3     1  UNL1        0.0594
      3 C         140.6385  141.1242  170.0544 C.3     1  UNL1        0.0174
      4 C         142.1036  140.8055  170.0965 C.3     1  UNL1        0.0174
      5 C         142.4648  140.1149  168.8149 C.3     1  UNL1        0.0594
      6 C         142.5355  139.4560  167.4583 C.3     1  UNL1        0.0386
      7 C         141.2186  139.4208  166.7412 C.3     1  UNL1        0.0893
      8 C         139.9978  140.0081  167.3854 C.3     1  UNL1        0.0386
      9 N         141.1223  138.7983  165.3798 N.ar    1  UNL1       -0.3167
     10 C         139.9281  138.0843  164.8193 C.ar    1  UNL1        0.1207
     11 C         138.6205  137.8675  165.5217 C.3     1  UNL1        0.0718
     12 N         140.2710  137.6252  163.4331 N.ar    1  UNL1       -0.2309
     13 C         141.6772  138.0555  163.1369 C.ar    1  UNL1        0.0983
     14 C         142.5464  137.8807  161.9270 C.ar    1  UNL1        0.0206
     15 C         143.9418  138.4310  161.9203 C.ar    1  UNL1        0.0016
     16 C         144.4679  139.1560  163.1235 C.ar    1  UNL1        0.0016
     17 C         143.5986  139.3307  164.3334 C.ar    1  UNL1        0.0188
     18 C         142.2033  138.7805  164.3400 C.ar    1  UNL1        0.0785
     19 C         141.1266  139.3844  166.6193 C.3     1  UNL1        0.0741
     20 C         141.1543  140.2504  165.3948 C.3     1  UNL1        0.0414
     21 C         141.1598  141.7440  165.5325 C.3     1  UNL1        0.0954
     22 C         139.9354  142.5345  165.1774 C.ar    1  UNL1       -0.0045
     23 C         138.8354  141.8964  164.3819 C.ar    1  UNL1       -0.0027
     24 C         137.6111  142.6868  164.0268 C.ar    1  UNL1       -0.0003
     25 C         137.4867  144.1153  164.4673 C.ar    1  UNL1       -0.0000
     26 C         138.5867  144.7534  165.2628 C.ar    1  UNL1       -0.0003
     27 C         139.8111  143.9630  165.6179 C.ar    1  UNL1       -0.0027
     28 C         144.6285  143.6724  165.5384 C.3     1  UNL1        0.0946
     29 C         143.3986  142.9691  165.0456 C.2     1  UNL1        0.2232
     30 O         143.1776  142.7878  163.5731 O.2     1  UNL1       -0.2751
     31 N         142.3898  142.4473  166.0253 N.am    1  UNL1       -0.3021
     32 H         142.5348  142.5663  166.9918 H       1  UNL1        0.1497
@<TRIPOS>BOND
     1    28    29    1
     2    29    30    2
     3    29    31   am
     4    31    21    1
     5    21    20    1
     6    20    19    1
     7    19     1    1
     8     1     2    1
     9     2     3    1
    10     3     4    1
    11     5     4    1
    12     5     6    1
    13     6     7    1
    14     7     9    1
    15     9    10   ar
    16    10    11    1
    17    10    12   ar
    18    12    13   ar
    19    13    14   ar
    20    14    15   ar
    21    15    16   ar
    22    16    17   ar
    23    17    18   ar
    24     7     8    1
    25    21    22    1
    26    22    23   ar
    27    23    24   ar
    28    24    25   ar
    29    25    26   ar
    30    26    27   ar
    31     5     1    1
    32    18     9   ar
    33    27    22   ar
    34     8     2    1
    35    18    13   ar
    36    31    32    1
@<TRIPOS>MOLECULE
*****
 32 36 0 0 0
SMALL
GASTEIGER

@<TRIPOS>ATOM
      1 N         142.8644  140.9354  168.0569 N.3     1  UNL1       -0.2750
      2 C         143.1216  142.1901  168.8377 C.3     1  UNL1        0.0594
      3 C         143.2208  141.8213  170.2883 C.3     1  UNL1        0.0174
      4 C         143.0248  140.3387  170.4041 C.3     1  UNL1        0.0174
      5 C         142.8046  139.7911  169.0251 C.3     1  UNL1        0.0594
      6 C         142.6143  139.5281  167.5506 C.3     1  UNL1        0.0386
      7 C         142.7000  140.7651  166.7065 C.3     1  UNL1        0.0893
      8 C         142.9537  142.0961  167.3501 C.3     1  UNL1        0.0386
      9 N         142.5321  140.6711  165.2189 N.ar    1  UNL1       -0.3167
     10 C         142.8280  141.7575  164.2279 C.ar    1  UNL1        0.1207
     11 C         143.3438  143.1286  164.5504 C.3     1  UNL1        0.0718
     12 N         142.5176  141.2320  162.8577 N.ar    1  UNL1       -0.2309
     13 C         142.0298  139.8209  163.0019 C.ar    1  UNL1        0.0983
     14 C         141.5786  138.8069  161.9929 C.ar    1  UNL1        0.0206
     15 C         141.1364  137.4462  162.4432 C.ar    1  UNL1        0.0016
     16 C         141.1454  137.0995  163.9026 C.ar    1  UNL1        0.0016
     17 C         141.5966  138.1135  164.9116 C.ar    1  UNL1        0.0188
     18 C         142.0388  139.4742  164.4612 C.ar    1  UNL1        0.0785
     19 C         142.6965  140.8414  166.5694 C.3     1  UNL1        0.0741
     20 C         141.3254  140.7043  165.9765 C.3     1  UNL1        0.0414
     21 C         140.1958  141.5424  166.4975 C.3     1  UNL1        0.0954
     22 C         139.4053  142.4037  165.5575 C.ar    1  UNL1       -0.0045
     23 C         139.6206  143.8881  165.5399 C.ar    1  UNL1       -0.0027
     24 C         138.8302  144.7494  164.5999 C.ar    1  UNL1       -0.0003
     25 C         137.8246  144.1262  163.6777 C.ar    1  UNL1       -0.0000
     26 C         137.6094  142.6418  163.6953 C.ar    1  UNL1       -0.0003
     27 C         138.3997  141.7805  164.6352 C.ar    1  UNL1       -0.0027
     28 C         138.8558  140.2897  170.0168 C.3     1  UNL1        0.0946
     29 C         139.1950  140.3128  168.5559 C.2     1  UNL1        0.2232
     30 O         138.8729  139.1294  167.6923 O.2     1  UNL1       -0.2751
     31 N         139.8565  141.5193  167.9585 N.am    1  UNL1       -0.3021
     32 H         140.0679  142.2960  168.5253 H       1  UNL1        0.1497
@<TRIPOS>BOND
     1    28    29    1
     2    29    30    2
     3    29    31   am
     4    31    21    1
     5    21    20    1
     6    20    19    1
     7    19     1    1
     8     1     2    1
     9     2     3    1
    10     3     4    1
    11     5     4    1
    12     5     6    1
    13     6     7    1
    14     7     9    1
    15     9    10   ar
    16    10    11    1
    17    10    12   ar
    18    12    13   ar
    19    13    14   ar
    20    14    15   ar
    21    15    16   ar
    22    16    17   ar
    23    17    18   ar
    24     7     8    1
    25    21    22    1
    26    22    23   ar
    27    23    24   ar
    28    24    25   ar
    29    25    26   ar
    30    26    27   ar
    31     5     1    1
    32    18     9   ar
    33    27    22   ar
    34     8     2    1
    35    18    13   ar
    36    31    32    1
@<TRIPOS>MOLECULE
*****
 32 36 0 0 0
SMALL
GASTEIGER

@<TRIPOS>ATOM
      1 N         141.9845  141.0102  168.6476 N.3     1  UNL1       -0.2750
      2 C         141.5027  139.9082  169.5441 C.3     1  UNL1        0.0594
      3 C         140.9057  140.5349  170.7692 C.3     1  UNL1        0.0174
      4 C         141.0184  142.0241  170.6299 C.3     1  UNL1        0.0174
      5 C         141.6852  142.3179  169.3187 C.3     1  UNL1        0.0594
      6 C         142.3625  142.3126  167.9695 C.3     1  UNL1        0.0386
      7 C         142.5971  140.9355  167.4234 C.3     1  UNL1        0.0893
      8 C         142.1672  139.7332  168.2107 C.3     1  UNL1        0.0386
      9 N         143.2615  140.7604  166.0900 N.ar    1  UNL1       -0.3167
     10 C         143.7431  139.4644  165.5083 C.ar    1  UNL1        0.1207
     11 C         143.6449  138.1159  166.1578 C.3     1  UNL1        0.0718
     12 N         144.3402  139.7538  164.1630 N.ar    1  UNL1       -0.2309
     13 C         144.2277  141.2285  163.9133 C.ar    1  UNL1        0.0983
     14 C         144.6461  142.0853  162.7554 C.ar    1  UNL1        0.0206
     15 C         144.3978  143.5642  162.7884 C.ar    1  UNL1        0.0016
     16 C         143.7311  144.1864  163.9793 C.ar    1  UNL1        0.0016
     17 C         143.3127  143.3296  165.1373 C.ar    1  UNL1        0.0188
     18 C         143.5609  141.8507  165.1043 C.ar    1  UNL1        0.0785
     19 C         142.6489  140.8352  167.3143 C.3     1  UNL1        0.0741
     20 C         141.8196  140.5786  166.0909 C.3     1  UNL1        0.0414
     21 C         140.3966  141.0496  166.0372 C.3     1  UNL1        0.0954
     22 C         140.0279  142.2272  165.1843 C.ar    1  UNL1       -0.0045
     23 C         139.6034  143.5146  165.8264 C.ar    1  UNL1       -0.0027
     24 C         139.2347  144.6922  164.9736 C.ar    1  UNL1       -0.0003
     25 C         139.2907  144.5823  163.4786 C.ar    1  UNL1       -0.0000
     26 C         139.7152  143.2949  162.8365 C.ar    1  UNL1       -0.0003
     27 C         140.0839  142.1173  163.6893 C.ar    1  UNL1       -0.0027
     28 C         137.5700  138.4552  167.0522 C.3     1  UNL1        0.0946
     29 C         138.6246  139.1618  166.2531 C.2     1  UNL1        0.2232
     30 O         138.9617  138.6873  164.8706 O.2     1  UNL1       -0.2751
     31 N         139.3420  140.3429  166.8364 N.am    1  UNL1       -0.3021
     32 H         139.1207  140.6544  167.7437 H       1  UNL1        0.1497
@<TRIPOS>BOND
     1    28    29    1
     2    29    30    2
     3    29    31   am
     4    31    21    1
     5    21    20    1
     6    20    19    1
     7    19     1    1
     8     1     2    1
     9     2     3    1
    10     3     4    1
    11     5     4    1
    12     5     6    1
    13     6     7    1
    14     7     9    1
    15     9    10   ar
    16    10    11    1
    17    10    12   ar
    18    12    13   ar
    19    13    14   ar
    20    14    15   ar
    21    15    16   ar
    22    16    17   ar
    23    17    18   ar
    24     7     8    1
    25    21    22    1
    26    22    23   ar
    27    23    24   ar
    28    24    25   ar
    29    25    26   ar
    30    26    27   ar
    31     5     1    1
    32    18     9   ar
    33    27    22   ar
    34     8     2    1
    35    18    13   ar
    36    31    32    1
@<TRIPOS>MOLECULE
*****
 32 36 0 0 0
SMALL
GASTEIGER

@<TRIPOS>ATOM
      1 N         143.2246  142.1093  164.4227 N.3     1  UNL1       -0.2750
      2 C         143.1647  141.5419  163.0354 C.3     1  UNL1        0.0594
      3 C         143.3743  142.6665  162.0652 C.3     1  UNL1        0.0174
      4 C         143.5637  143.9289  162.8528 C.3     1  UNL1        0.0174
      5 C         143.4712  143.5846  164.3098 C.3     1  UNL1        0.0594
      6 C         143.3339  142.9562  165.6757 C.3     1  UNL1        0.0386
      7 C         143.0905  141.4768  165.6317 C.3     1  UNL1        0.0893
      8 C         143.0059  140.7696  164.3115 C.3     1  UNL1        0.0386
      9 N         142.9317  140.7045  166.9078 N.ar    1  UNL1       -0.3167
     10 C         143.1276  139.2267  167.0742 C.ar    1  UNL1        0.1207
     11 C         143.5167  138.2617  165.9937 C.3     1  UNL1        0.0718
     12 N         142.8661  138.8834  168.5107 N.ar    1  UNL1       -0.2309
     13 C         142.5086  140.1490  169.2322 C.ar    1  UNL1        0.0983
     14 C         142.1513  140.4219  170.6632 C.ar    1  UNL1        0.0206
     15 C         141.8347  141.8204  171.1035 C.ar    1  UNL1        0.0016
     16 C         141.8753  142.9460  170.1128 C.ar    1  UNL1        0.0016
     17 C         142.2325  142.6730  168.6818 C.ar    1  UNL1        0.0188
     18 C         142.5491  141.2745  168.2415 C.ar    1  UNL1        0.0785
     19 C         143.0658  141.3371  165.6987 C.3     1  UNL1        0.0741
     20 C         141.7118  141.2018  166.3301 C.3     1  UNL1        0.0414
     21 C         140.5034  140.9733  165.4715 C.3     1  UNL1        0.0954
     22 C         139.6365  142.1309  165.0730 C.ar    1  UNL1       -0.0045
     23 C         139.8111  143.4630  165.7401 C.ar    1  UNL1       -0.0027
     24 C         138.9444  144.6206  165.3417 C.ar    1  UNL1       -0.0003
     25 C         137.9030  144.4459  164.2763 C.ar    1  UNL1       -0.0000
     26 C         137.7283  143.1138  163.6093 C.ar    1  UNL1       -0.0003
     27 C         138.5951  141.9562  164.0076 C.ar    1  UNL1       -0.0027
     28 C         138.8779  137.3546  165.3548 C.3     1  UNL1        0.0946
     29 C         139.2196  138.7407  165.8151 C.2     1  UNL1        0.2232
     30 O         138.6194  139.2805  167.0793 O.2     1  UNL1       -0.2751
     31 N         140.1616  139.5871  165.0111 N.am    1  UNL1       -0.3021
     32 H         140.5556  139.2328  164.1813 H       1  UNL1        0.1497
@<TRIPOS>BOND
     1    28    29    1
     2    29    30    2
     3    29    31   am
     4    31    21    1
     5    21    20    1
     6    20    19    1
     7    19     1    1
     8     1     2    1
     9     2     3    1
    10     3     4    1
    11     5     4    1
    12     5     6    1
    13     6     7    1
    14     7     9    1
    15     9    10   ar
    16    10    11    1
    17    10    12   ar
    18    12    13   ar
    19    13    14   ar
    20    14    15   ar
    21    15    16   ar
    22    16    17   ar
    23    17    18   ar
    24     7     8    1
    25    21    22    1
    26    22    23   ar
    27    23    24   ar
    28    24    25   ar
    29    25    26   ar
    30    26    27   ar
    31     5     1    1
    32    18     9   ar
    33    27    22   ar
    34     8     2    1
    35    18    13   ar
    36    31    32    1
@<TRIPOS>MOLECULE
*****
 32 36 0 0 0
SMALL
GASTEIGER

@<TRIPOS>ATOM
      1 N         142.1353  141.0806  168.6661 N.3     1  UNL1       -0.2750
      2 C         141.4221  140.0485  169.4885 C.3     1  UNL1        0.0594
      3 C         140.9460  140.7081  170.7488 C.3     1  UNL1        0.0174
      4 C         141.3649  142.1477  170.7053 C.3     1  UNL1        0.0174
      5 C         142.0999  142.3780  169.4182 C.3     1  UNL1        0.0594
      6 C         142.7844  142.3163  168.0739 C.3     1  UNL1        0.0386
      7 C         142.7400  140.9568  167.4419 C.3     1  UNL1        0.0893
      8 C         142.0588  139.8228  168.1492 C.3     1  UNL1        0.0386
      9 N         143.3767  140.7310  166.1026 N.ar    1  UNL1       -0.3167
     10 C         143.8096  139.4080  165.5439 C.ar    1  UNL1        0.1207
     11 C         143.6817  138.0784  166.2264 C.3     1  UNL1        0.0718
     12 N         144.3927  139.6481  164.1829 N.ar    1  UNL1       -0.2309
     13 C         144.3202  141.1194  163.9005 C.ar    1  UNL1        0.0983
     14 C         144.7449  141.9362  162.7162 C.ar    1  UNL1        0.0206
     15 C         144.5416  143.4224  162.7185 C.ar    1  UNL1        0.0016
     16 C         143.9137  144.0917  163.9049 C.ar    1  UNL1        0.0016
     17 C         143.4890  143.2749  165.0892 C.ar    1  UNL1        0.0188
     18 C         143.6923  141.7888  165.0869 C.ar    1  UNL1        0.0785
     19 C         142.7720  140.8549  167.3269 C.3     1  UNL1        0.0741
     20 C         141.9739  141.0582  166.0731 C.3     1  UNL1        0.0414
     21 C         140.4754  141.0809  166.1333 C.3     1  UNL1        0.0954
     22 C         139.7009  139.8008  166.0252 C.ar    1  UNL1       -0.0045
     23 C         138.5428  139.5452  166.9435 C.ar    1  UNL1       -0.0027
     24 C         137.7683  138.2651  166.8355 C.ar    1  UNL1       -0.0003
     25 C         138.1520  137.2408  165.8090 C.ar    1  UNL1       -0.0000
     26 C         139.3102  137.4964  164.8907 C.ar    1  UNL1       -0.0003
     27 C         140.0847  138.7764  164.9988 C.ar    1  UNL1       -0.0027
     28 C         138.8737  144.6157  165.3024 C.3     1  UNL1        0.0946
     29 C         139.5979  143.3129  165.1341 C.2     1  UNL1        0.2232
     30 O         140.1689  142.9394  163.7983 O.2     1  UNL1       -0.2751
     31 N         139.7511  142.3837  166.3016 N.am    1  UNL1       -0.3021
     32 H         139.3763  142.6289  167.1784 H       1  UNL1        0.1497
@<TRIPOS>BOND
     1    28    29    1
     2    29    30    2
     3    29    31   am
     4    31    21    1
     5    21    20    1
     6    20    19    1
     7    19     1    1
     8     1     2    1
     9     2     3    1
    10     3     4    1
    11     5     4    1
    12     5     6    1
    13     6     7    1
    14     7     9    1
    15     9    10   ar
    16    10    11    1
    17    10    12   ar
    18    12    13   ar
    19    13    14   ar
    20    14    15   ar
    21    15    16   ar
    22    16    17   ar
    23    17    18   ar
    24     7     8    1
    25    21    22    1
    26    22    23   ar
    27    23    24   ar
    28    24    25   ar
    29    25    26   ar
    30    26    27   ar
    31     5     1    1
    32    18     9   ar
    33    27    22   ar
    34     8     2    1
    35    18    13   ar
    36    31    32    1
@<TRIPOS>MOLECULE
*****
 32 36 0 0 0
SMALL
GASTEIGER

@<TRIPOS>ATOM
      1 N         141.9249  138.9295  164.4819 N.3     1  UNL1       -0.2750
      2 C         141.2976  138.7950  163.1259 C.3     1  UNL1        0.0594
      3 C         142.3858  138.4884  162.1401 C.3     1  UNL1        0.0174
      4 C         143.6856  138.4333  162.8867 C.3     1  UNL1        0.0174
      5 C         143.4008  138.7059  164.3340 C.3     1  UNL1        0.0594
      6 C         142.8271  139.0042  165.6982 C.3     1  UNL1        0.0386
      7 C         141.3406  139.2042  165.6913 C.3     1  UNL1        0.0893
      8 C         140.5757  139.0996  164.4051 C.3     1  UNL1        0.0386
      9 N         140.6187  139.5087  166.9705 N.ar    1  UNL1       -0.3167
     10 C         139.1345  139.4531  167.1800 C.ar    1  UNL1        0.1207
     11 C         138.1115  139.0831  166.1473 C.3     1  UNL1        0.0718
     12 N         138.8529  139.8323  168.6037 N.ar    1  UNL1       -0.2309
     13 C         140.1631  140.1224  169.2740 C.ar    1  UNL1        0.0983
     14 C         140.5033  140.5428  170.6731 C.ar    1  UNL1        0.0206
     15 C         141.9349  140.7631  171.0627 C.ar    1  UNL1        0.0016
     16 C         143.0263  140.5631  170.0533 C.ar    1  UNL1        0.0016
     17 C         142.6860  140.1427  168.6542 C.ar    1  UNL1        0.0188
     18 C         141.2544  139.9224  168.2646 C.ar    1  UNL1        0.0785
     19 C         141.2031  139.2340  165.7610 C.3     1  UNL1        0.0741
     20 C         141.0876  140.6516  166.2379 C.3     1  UNL1        0.0414
     21 C         141.1357  141.7809  165.2520 C.3     1  UNL1        0.0954
     22 C         139.9225  142.6347  165.0298 C.ar    1  UNL1       -0.0045
     23 C         138.8291  142.1615  164.1185 C.ar    1  UNL1       -0.0027
     24 C         137.6160  143.0152  163.8963 C.ar    1  UNL1       -0.0003
     25 C         137.4964  144.3423  164.5854 C.ar    1  UNL1       -0.0000
     26 C         138.5898  144.8155  165.4966 C.ar    1  UNL1       -0.0003
     27 C         139.8029  143.9617  165.7188 C.ar    1  UNL1       -0.0027
     28 C         144.8903  142.7856  164.4496 C.3     1  UNL1        0.0946
     29 C         143.6292  142.5100  165.2134 C.2     1  UNL1        0.2232
     30 O         143.6002  142.6878  166.7025 O.2     1  UNL1       -0.2751
     31 N         142.3969  142.0565  164.4881 N.am    1  UNL1       -0.3021
     32 H         142.4160  141.9398  163.5107 H       1  UNL1        0.1497
@<TRIPOS>BOND
     1    28    29    1
     2    29    30    2
     3    29    31   am
     4    31    21    1
     5    21    20    1
     6    20    19    1
     7    19     1    1
     8     1     2    1
     9     2     3    1
    10     3     4    1
    11     5     4    1
    12     5     6    1
    13     6     7    1
    14     7     9    1
    15     9    10   ar
    16    10    11    1
    17    10    12   ar
    18    12    13   ar
    19    13    14   ar
    20    14    15   ar
    21    15    16   ar
    22    16    17   ar
    23    17    18   ar
    24     7     8    1
    25    21    22    1
    26    22    23   ar
    27    23    24   ar
    28    24    25   ar
    29    25    26   ar
    30    26    27   ar
    31     5     1    1
    32    18     9   ar
    33    27    22   ar
    34     8     2    1
    35    18    13   ar
    36    31    32    1
