@<TRIPOS>MOLECULE
*****
 24 25 0 0 0
SMALL
GASTEIGER

@<TRIPOS>ATOM
      1 C         138.3150  140.6079  159.6970 C.2     1  UNL1        0.4051
      2 O         138.5476  139.6912  158.5327 O.2     1  UNL1       -0.2262
      3 N         138.3898  140.0756  161.0973 N.am    1  UNL1       -0.2378
      4 C         138.6860  138.6577  161.4870 C.3     1  UNL1        0.1235
      5 C         138.6608  138.5735  162.9844 C.ar    1  UNL1       -0.0046
      6 C         138.8814  137.4296  163.9292 C.ar    1  UNL1       -0.0029
      7 C         138.7903  137.6516  165.4099 C.ar    1  UNL1       -0.0003
      8 C         138.4785  139.0175  165.9457 C.ar    1  UNL1       -0.0001
      9 C         138.2579  140.1614  165.0009 C.ar    1  UNL1       -0.0029
     10 C         138.3490  139.9394  163.5203 C.ar    1  UNL1       -0.0046
     11 C         138.1815  140.8677  162.3540 C.3     1  UNL1        0.1235
     12 C         138.3874  139.2394  167.4265 C.2     1  UNL1        0.0047
     13 C         139.4978  139.9428  168.1491 C.2     1  UNL1        0.0598
     14 C         139.4067  140.1648  169.6299 C.2     1  UNL1        0.2679
     15 O         138.0851  140.0361  170.3276 O.2     1  UNL1       -0.2681
     16 N         140.6371  140.5154  170.4128 N.am    1  UNL1       -0.1934
     17 O         140.5460  140.7373  171.8935 O.3     1  UNL1       -0.2949
     18 H         141.5045  140.5999  169.9549 H       1  UNL1        0.1825
     19 H         139.6280  140.6164  172.1826 H       1  UNL1        0.2414
     20 O         138.0075  142.0569  159.4608 O.3     1  UNL1       -0.4418
     21 C         139.9130  142.9883  159.5048 C.3     1  UNL1        0.0437
     22 C         138.8247  142.8471  158.4821 C.3     1  UNL1        0.1378
     23 C         137.7364  142.7060  157.4595 C.3     1  UNL1        0.0437
     24 C         139.6418  143.6374  157.5035 C.3     1  UNL1        0.0437
@<TRIPOS>BOND
     1    21    22    1
     2    22    23    1
     3    22    24    1
     4    22    20    1
     5    20     1    1
     6     1     2    2
     7     1     3   am
     8     3     4    1
     9     4     5    1
    10     5     6   ar
    11     6     7   ar
    12     7     8   ar
    13     8    12    1
    14    12    13    2
    15    13    14    1
    16    14    15    2
    17    14    16   am
    18    16    17    1
    19     8     9   ar
    20     9    10   ar
    21    10    11    1
    22    11     3    1
    23    10     5   ar
    24    16    18    1
    25    17    19    1
@<TRIPOS>MOLECULE
*****
 24 25 0 0 0
SMALL
GASTEIGER

@<TRIPOS>ATOM
      1 C         140.3338  140.6100  170.0870 C.2     1  UNL1        0.4051
      2 O         139.7446  139.4170  170.7794 O.2     1  UNL1       -0.2262
      3 N         140.0657  140.8394  168.6291 N.am    1  UNL1       -0.2378
      4 C         139.2324  139.9668  167.7380 C.3     1  UNL1        0.1235
      5 C         139.2354  140.5696  166.3645 C.ar    1  UNL1       -0.0046
      6 C         138.5856  140.1456  165.0808 C.ar    1  UNL1       -0.0029
      7 C         138.7710  140.9668  163.8393 C.ar    1  UNL1       -0.0003
      8 C         139.6063  142.2120  163.8816 C.ar    1  UNL1       -0.0001
      9 C         140.2561  142.6361  165.1653 C.ar    1  UNL1       -0.0029
     10 C         140.0707  141.8149  166.4067 C.ar    1  UNL1       -0.0046
     11 C         140.5838  141.9815  167.8063 C.3     1  UNL1        0.1235
     12 C         139.7917  143.0333  162.6401 C.2     1  UNL1        0.0047
     13 C         140.2352  144.4623  162.7454 C.2     1  UNL1        0.0598
     14 C         140.4206  145.2835  161.5038 C.2     1  UNL1        0.2679
     15 O         139.3818  146.2908  161.1089 O.2     1  UNL1       -0.2681
     16 N         141.6448  145.0973  160.6574 N.am    1  UNL1       -0.1934
     17 O         141.8302  145.9185  159.4159 O.3     1  UNL1       -0.2949
     18 H         142.3267  144.4362  160.9166 H       1  UNL1        0.1825
     19 H         141.0735  146.5157  159.3073 H       1  UNL1        0.2414
     20 O         141.1912  141.5737  170.8526 O.3     1  UNL1       -0.4418
     21 C         142.9312  140.4722  170.3436 C.3     1  UNL1        0.0437
     22 C         142.5592  141.9253  170.3475 C.3     1  UNL1        0.1378
     23 C         142.1871  143.3784  170.3514 C.3     1  UNL1        0.0437
     24 C         143.9271  142.2768  169.8424 C.3     1  UNL1        0.0437
@<TRIPOS>BOND
     1    21    22    1
     2    22    23    1
     3    22    24    1
     4    22    20    1
     5    20     1    1
     6     1     2    2
     7     1     3   am
     8     3     4    1
     9     4     5    1
    10     5     6   ar
    11     6     7   ar
    12     7     8   ar
    13     8    12    1
    14    12    13    2
    15    13    14    1
    16    14    15    2
    17    14    16   am
    18    16    17    1
    19     8     9   ar
    20     9    10   ar
    21    10    11    1
    22    11     3    1
    23    10     5   ar
    24    16    18    1
    25    17    19    1
@<TRIPOS>MOLECULE
*****
 24 25 0 0 0
SMALL
GASTEIGER

@<TRIPOS>ATOM
      1 C         138.4035  143.2848  161.9427 C.2     1  UNL1        0.4051
      2 O         137.3633  142.8989  160.9332 O.2     1  UNL1       -0.2262
      3 N         138.6176  142.4362  163.1609 N.am    1  UNL1       -0.2378
      4 C         137.8718  141.1805  163.5030 C.3     1  UNL1        0.1235
      5 C         138.4084  140.6625  164.8044 C.ar    1  UNL1       -0.0046
      6 C         138.0551  139.4598  165.6282 C.ar    1  UNL1       -0.0029
      7 C         138.7792  139.1927  166.9143 C.ar    1  UNL1       -0.0003
      8 C         139.8567  140.1283  167.3767 C.ar    1  UNL1       -0.0001
      9 C         140.2100  141.3310  166.5529 C.ar    1  UNL1       -0.0029
     10 C         139.4858  141.5981  165.2667 C.ar    1  UNL1       -0.0046
     11 C         139.6151  142.6943  164.2510 C.3     1  UNL1        0.1235
     12 C         140.5809  139.8612  168.6629 C.2     1  UNL1        0.0047
     13 C         141.4617  140.9177  169.2611 C.2     1  UNL1        0.0598
     14 C         142.1859  140.6505  170.5473 C.2     1  UNL1        0.2679
     15 O         141.8035  141.3953  171.7919 O.2     1  UNL1       -0.2681
     16 N         143.2924  139.6387  170.5888 N.am    1  UNL1       -0.1934
     17 O         144.0165  139.3716  171.8750 O.3     1  UNL1       -0.2949
     18 H         143.5434  139.1499  169.7719 H       1  UNL1        0.1825
     19 H         143.6485  139.9323  172.5757 H       1  UNL1        0.2414
     20 O         139.2295  144.5193  161.7340 O.3     1  UNL1       -0.4418
     21 C         140.4703  143.4186  160.4116 C.3     1  UNL1        0.0437
     22 C         140.7092  144.4038  161.5171 C.3     1  UNL1        0.1378
     23 C         140.9481  145.3891  162.6227 C.3     1  UNL1        0.0437
     24 C         142.1890  144.2883  161.3003 C.3     1  UNL1        0.0437
@<TRIPOS>BOND
     1    21    22    1
     2    22    23    1
     3    22    24    1
     4    22    20    1
     5    20     1    1
     6     1     2    2
     7     1     3   am
     8     3     4    1
     9     4     5    1
    10     5     6   ar
    11     6     7   ar
    12     7     8   ar
    13     8    12    1
    14    12    13    2
    15    13    14    1
    16    14    15    2
    17    14    16   am
    18    16    17    1
    19     8     9   ar
    20     9    10   ar
    21    10    11    1
    22    11     3    1
    23    10     5   ar
    24    16    18    1
    25    17    19    1
@<TRIPOS>MOLECULE
*****
 24 25 0 0 0
SMALL
GASTEIGER

@<TRIPOS>ATOM
      1 C         140.0967  138.6545  161.4859 C.2     1  UNL1        0.4051
      2 O         139.2170  137.6149  160.8571 O.2     1  UNL1       -0.2262
      3 N         139.9193  139.0122  162.9317 N.am    1  UNL1       -0.2378
      4 C         138.9104  138.4185  163.8696 C.3     1  UNL1        0.1235
      5 C         139.0872  139.0659  165.2111 C.ar    1  UNL1       -0.0046
      6 C         138.3745  138.8788  166.5176 C.ar    1  UNL1       -0.0029
      7 C         138.7800  139.6855  167.7153 C.ar    1  UNL1       -0.0003
      8 C         139.8982  140.6794  167.6066 C.ar    1  UNL1       -0.0001
      9 C         140.6109  140.8665  166.3001 C.ar    1  UNL1       -0.0029
     10 C         140.2054  140.0597  165.1024 C.ar    1  UNL1       -0.0046
     11 C         140.7197  140.0266  163.6937 C.3     1  UNL1        0.1235
     12 C         140.3037  141.4862  168.8045 C.2     1  UNL1        0.0047
     13 C         141.7414  141.5262  169.2300 C.2     1  UNL1        0.0598
     14 C         142.1469  142.3330  170.4279 C.2     1  UNL1        0.2679
     15 O         141.4789  142.0995  171.7504 O.2     1  UNL1       -0.2681
     16 N         143.2204  143.3732  170.3031 N.am    1  UNL1       -0.1934
     17 O         143.6258  144.1799  171.5009 O.3     1  UNL1       -0.2949
     18 H         143.6588  143.5264  169.4351 H       1  UNL1        0.1825
     19 H         143.1002  143.9054  172.2686 H       1  UNL1        0.2414
     20 O         141.1538  139.3363  160.6688 O.3     1  UNL1       -0.4418
     21 C         141.1663  139.2802  158.5482 C.3     1  UNL1        0.0437
     22 C         141.9153  138.5639  159.6326 C.3     1  UNL1        0.1378
     23 C         142.6643  137.8476  160.7170 C.3     1  UNL1        0.0437
     24 C         142.6768  137.7916  158.5965 C.3     1  UNL1        0.0437
@<TRIPOS>BOND
     1    21    22    1
     2    22    23    1
     3    22    24    1
     4    22    20    1
     5    20     1    1
     6     1     2    2
     7     1     3   am
     8     3     4    1
     9     4     5    1
    10     5     6   ar
    11     6     7   ar
    12     7     8   ar
    13     8    12    1
    14    12    13    2
    15    13    14    1
    16    14    15    2
    17    14    16   am
    18    16    17    1
    19     8     9   ar
    20     9    10   ar
    21    10    11    1
    22    11     3    1
    23    10     5   ar
    24    16    18    1
    25    17    19    1
@<TRIPOS>MOLECULE
*****
 24 25 0 0 0
SMALL
GASTEIGER

@<TRIPOS>ATOM
      1 C         140.6850  145.4678  160.1174 C.2     1  UNL1        0.4051
      2 O         139.6222  146.2971  159.4596 O.2     1  UNL1       -0.2262
      3 N         140.5071  145.0067  161.5336 N.am    1  UNL1       -0.2378
      4 C         139.3267  145.2950  162.4131 C.3     1  UNL1        0.1235
      5 C         139.5685  144.6428  163.7421 C.ar    1  UNL1       -0.0046
      6 C         138.7495  144.5892  164.9976 C.ar    1  UNL1       -0.0029
      7 C         139.2604  143.8442  166.1950 C.ar    1  UNL1       -0.0003
      8 C         140.5903  143.1528  166.1369 C.ar    1  UNL1       -0.0001
      9 C         141.4093  143.2064  164.8814 C.ar    1  UNL1       -0.0029
     10 C         140.8984  143.9514  163.6840 C.ar    1  UNL1       -0.0046
     11 C         141.4785  144.1763  162.3191 C.3     1  UNL1        0.1235
     12 C         141.1012  142.4077  167.3344 C.2     1  UNL1        0.0047
     13 C         140.5357  142.6947  168.6937 C.2     1  UNL1        0.0598
     14 C         141.0466  141.9496  169.8912 C.2     1  UNL1        0.2679
     15 O         142.5233  141.8267  170.1242 O.2     1  UNL1       -0.2681
     16 N         140.0808  141.3276  170.8557 N.am    1  UNL1       -0.1934
     17 O         140.5917  140.5826  172.0531 O.3     1  UNL1       -0.2949
     18 H         139.1116  141.4082  170.7028 H       1  UNL1        0.1825
     19 H         141.5616  140.5977  172.0537 H       1  UNL1        0.2414
     20 O         141.9256  145.0996  159.3589 O.3     1  UNL1       -0.4418
     21 C         142.2254  145.8322  157.3908 C.3     1  UNL1        0.0437
     22 C         141.8170  144.5154  157.9817 C.3     1  UNL1        0.1378
     23 C         141.4087  143.1985  158.5725 C.3     1  UNL1        0.0437
     24 C         141.7085  143.9311  156.6044 C.3     1  UNL1        0.0437
@<TRIPOS>BOND
     1    21    22    1
     2    22    23    1
     3    22    24    1
     4    22    20    1
     5    20     1    1
     6     1     2    2
     7     1     3   am
     8     3     4    1
     9     4     5    1
    10     5     6   ar
    11     6     7   ar
    12     7     8   ar
    13     8    12    1
    14    12    13    2
    15    13    14    1
    16    14    15    2
    17    14    16   am
    18    16    17    1
    19     8     9   ar
    20     9    10   ar
    21    10    11    1
    22    11     3    1
    23    10     5   ar
    24    16    18    1
    25    17    19    1
@<TRIPOS>MOLECULE
*****
 24 25 0 0 0
SMALL
GASTEIGER

@<TRIPOS>ATOM
      1 C         142.9608  143.4332  160.3916 C.2     1  UNL1        0.4051
      2 O         142.5224  144.3921  159.3247 O.2     1  UNL1       -0.2262
      3 N         142.2677  143.4232  161.7218 N.am    1  UNL1       -0.2378
      4 C         141.1271  144.3085  162.1284 C.3     1  UNL1        0.1235
      5 C         140.7480  143.9586  163.5369 C.ar    1  UNL1       -0.0046
      6 C         139.6947  144.5007  164.4570 C.ar    1  UNL1       -0.0029
      7 C         139.5477  143.9412  165.8409 C.ar    1  UNL1       -0.0003
      8 C         140.4540  142.8397  166.3048 C.ar    1  UNL1       -0.0001
      9 C         141.5074  142.2976  165.3848 C.ar    1  UNL1       -0.0029
     10 C         141.6544  142.8571  164.0008 C.ar    1  UNL1       -0.0046
     11 C         142.5936  142.5262  162.8790 C.3     1  UNL1        0.1235
     12 C         140.3069  142.2803  167.6889 C.2     1  UNL1        0.0047
     13 C         140.3054  143.2004  168.8735 C.2     1  UNL1        0.0598
     14 C         140.1584  142.6410  170.2575 C.2     1  UNL1        0.2679
     15 O         139.2418  143.3054  171.2416 O.2     1  UNL1       -0.2681
     16 N         140.9279  141.4171  170.6575 N.am    1  UNL1       -0.1934
     17 O         140.7808  140.8578  172.0415 O.3     1  UNL1       -0.2949
     18 H         141.5295  140.9810  170.0116 H       1  UNL1        0.1825
     19 H         140.1556  141.4019  172.5454 H       1  UNL1        0.2414
     20 O         144.0922  142.4843  160.1282 O.3     1  UNL1       -0.4418
     21 C         145.1305  142.5060  158.2785 C.3     1  UNL1        0.0437
     22 C         144.0822  141.6288  158.8961 C.3     1  UNL1        0.1378
     23 C         143.0339  140.7516  159.5138 C.3     1  UNL1        0.0437
     24 C         144.0722  140.7732  157.6641 C.3     1  UNL1        0.0437
@<TRIPOS>BOND
     1    21    22    1
     2    22    23    1
     3    22    24    1
     4    22    20    1
     5    20     1    1
     6     1     2    2
     7     1     3   am
     8     3     4    1
     9     4     5    1
    10     5     6   ar
    11     6     7   ar
    12     7     8   ar
    13     8    12    1
    14    12    13    2
    15    13    14    1
    16    14    15    2
    17    14    16   am
    18    16    17    1
    19     8     9   ar
    20     9    10   ar
    21    10    11    1
    22    11     3    1
    23    10     5   ar
    24    16    18    1
    25    17    19    1
@<TRIPOS>MOLECULE
*****
 24 25 0 0 0
SMALL
GASTEIGER

@<TRIPOS>ATOM
      1 C         138.3354  140.6425  160.9527 C.2     1  UNL1        0.4051
      2 O         137.2626  139.7925  160.3393 O.2     1  UNL1       -0.2262
      3 N         138.6285  140.5372  162.4201 N.am    1  UNL1       -0.2378
      4 C         137.9354  139.6320  163.3948 C.3     1  UNL1        0.1235
      5 C         138.5446  139.8540  164.7475 C.ar    1  UNL1       -0.0046
      6 C         138.2636  139.2415  166.0876 C.ar    1  UNL1       -0.0029
      7 C         139.0522  139.6716  167.2889 C.ar    1  UNL1       -0.0003
      8 C         140.1219  140.7140  167.1500 C.ar    1  UNL1       -0.0001
      9 C         140.4029  141.3264  165.8099 C.ar    1  UNL1       -0.0029
     10 C         139.6143  140.8964  164.6086 C.ar    1  UNL1       -0.0046
     11 C         139.6661  141.3186  163.1702 C.3     1  UNL1        0.1235
     12 C         140.9105  141.1440  168.3514 C.2     1  UNL1        0.0047
     13 C         140.3868  142.2309  169.2426 C.2     1  UNL1        0.0598
     14 C         141.1755  142.6609  170.4440 C.2     1  UNL1        0.2679
     15 O         140.6821  142.3324  171.8219 O.2     1  UNL1       -0.2681
     16 N         142.4574  143.4194  170.2674 N.am    1  UNL1       -0.1934
     17 O         143.2460  143.8493  171.4688 O.3     1  UNL1       -0.2949
     18 H         142.7813  143.6350  169.3631 H       1  UNL1        0.1825
     19 H         142.7910  143.5594  172.2749 H       1  UNL1        0.2414
     20 O         139.1152  141.5979  160.0989 O.3     1  UNL1       -0.4418
     21 C         138.5280  142.1263  158.1301 C.3     1  UNL1        0.0437
     22 C         139.5436  141.1930  158.7196 C.3     1  UNL1        0.1378
     23 C         140.5593  140.2598  159.3090 C.3     1  UNL1        0.0437
     24 C         139.9721  140.7881  157.3403 C.3     1  UNL1        0.0437
@<TRIPOS>BOND
     1    21    22    1
     2    22    23    1
     3    22    24    1
     4    22    20    1
     5    20     1    1
     6     1     2    2
     7     1     3   am
     8     3     4    1
     9     4     5    1
    10     5     6   ar
    11     6     7   ar
    12     7     8   ar
    13     8    12    1
    14    12    13    2
    15    13    14    1
    16    14    15    2
    17    14    16   am
    18    16    17    1
    19     8     9   ar
    20     9    10   ar
    21    10    11    1
    22    11     3    1
    23    10     5   ar
    24    16    18    1
    25    17    19    1
@<TRIPOS>MOLECULE
*****
 24 25 0 0 0
SMALL
GASTEIGER

@<TRIPOS>ATOM
      1 C         139.7634  140.0945  168.4216 C.2     1  UNL1        0.4051
      2 O         138.4823  139.8695  169.1685 O.2     1  UNL1       -0.2262
      3 N         139.9188  139.5714  167.0243 N.am    1  UNL1       -0.2378
      4 C         138.8859  138.8094  166.2482 C.3     1  UNL1        0.1235
      5 C         139.4630  138.4855  164.9021 C.ar    1  UNL1       -0.0046
      6 C         138.9027  137.7516  163.7200 C.ar    1  UNL1       -0.0029
      7 C         139.7321  137.5795  162.4821 C.ar    1  UNL1       -0.0003
      8 C         141.1218  138.1414  162.4263 C.ar    1  UNL1       -0.0001
      9 C         141.6821  138.8754  163.6083 C.ar    1  UNL1       -0.0029
     10 C         140.8527  139.0474  164.8463 C.ar    1  UNL1       -0.0046
     11 C         141.1343  139.7185  166.1578 C.3     1  UNL1        0.1235
     12 C         141.9511  137.9694  161.1882 C.2     1  UNL1        0.0047
     13 C         142.2495  139.1519  160.3150 C.2     1  UNL1        0.0598
     14 C         143.0789  138.9798  159.0770 C.2     1  UNL1        0.2679
     15 O         144.1799  139.9514  158.7708 O.2     1  UNL1       -0.2681
     16 N         142.8072  137.8362  158.1452 N.am    1  UNL1       -0.1934
     17 O         143.6365  137.6642  156.9073 O.3     1  UNL1       -0.2949
     18 H         142.0845  137.1985  158.3462 H       1  UNL1        0.1825
     19 H         144.2985  138.3716  156.8607 H       1  UNL1        0.2414
     20 O         140.8892  140.8427  169.0718 O.3     1  UNL1       -0.4418
     21 C         140.6649  142.7058  168.0827 C.3     1  UNL1        0.0437
     22 C         140.6894  142.2617  169.5152 C.3     1  UNL1        0.1378
     23 C         140.7139  141.8175  170.9477 C.3     1  UNL1        0.0437
     24 C         140.4896  143.6806  169.9586 C.3     1  UNL1        0.0437
@<TRIPOS>BOND
     1    21    22    1
     2    22    23    1
     3    22    24    1
     4    22    20    1
     5    20     1    1
     6     1     2    2
     7     1     3   am
     8     3     4    1
     9     4     5    1
    10     5     6   ar
    11     6     7   ar
    12     7     8   ar
    13     8    12    1
    14    12    13    2
    15    13    14    1
    16    14    15    2
    17    14    16   am
    18    16    17    1
    19     8     9   ar
    20     9    10   ar
    21    10    11    1
    22    11     3    1
    23    10     5   ar
    24    16    18    1
    25    17    19    1
@<TRIPOS>MOLECULE
*****
 24 25 0 0 0
SMALL
GASTEIGER

@<TRIPOS>ATOM
      1 C         142.1459  143.4119  160.5607 C.2     1  UNL1        0.4051
      2 O         143.4329  143.5616  159.8048 O.2     1  UNL1       -0.2262
      3 N         142.1696  143.1523  162.0379 N.am    1  UNL1       -0.2378
      4 C         143.3967  143.0181  162.8900 C.3     1  UNL1        0.1235
      5 C         142.9558  142.7641  164.3010 C.ar    1  UNL1       -0.0046
      6 C         143.7261  142.5507  165.5703 C.ar    1  UNL1       -0.0029
      7 C         142.9967  142.3144  166.8595 C.ar    1  UNL1       -0.0003
      8 C         141.4971  142.2915  166.8795 C.ar    1  UNL1       -0.0001
      9 C         140.7267  142.5050  165.6102 C.ar    1  UNL1       -0.0029
     10 C         141.4561  142.7413  164.3210 C.ar    1  UNL1       -0.0046
     11 C         140.9702  142.9811  162.9223 C.3     1  UNL1        0.1235
     12 C         140.7677  142.0552  168.1688 C.2     1  UNL1        0.0047
     13 C         140.0071  140.7793  168.3772 C.2     1  UNL1        0.0598
     14 C         139.2777  140.5430  169.6665 C.2     1  UNL1        0.2679
     15 O         139.7185  141.2444  170.9170 O.2     1  UNL1       -0.2681
     16 N         138.1076  139.6053  169.7053 N.am    1  UNL1       -0.1934
     17 O         137.3783  139.3690  170.9946 O.3     1  UNL1       -0.2949
     18 H         137.8183  139.1450  168.8846 H       1  UNL1        0.1825
     19 H         137.7881  139.8951  171.6990 H       1  UNL1        0.2414
     20 O         140.8354  143.5220  159.8394 O.3     1  UNL1       -0.4418
     21 C         140.4011  145.5825  160.0955 C.3     1  UNL1        0.0437
     22 C         140.5828  144.6756  158.9146 C.3     1  UNL1        0.1378
     23 C         140.7646  143.7687  157.7337 C.3     1  UNL1        0.0437
     24 C         140.3303  145.8292  157.9897 C.3     1  UNL1        0.0437
@<TRIPOS>BOND
     1    21    22    1
     2    22    23    1
     3    22    24    1
     4    22    20    1
     5    20     1    1
     6     1     2    2
     7     1     3   am
     8     3     4    1
     9     4     5    1
    10     5     6   ar
    11     6     7   ar
    12     7     8   ar
    13     8    12    1
    14    12    13    2
    15    13    14    1
    16    14    15    2
    17    14    16   am
    18    16    17    1
    19     8     9   ar
    20     9    10   ar
    21    10    11    1
    22    11     3    1
    23    10     5   ar
    24    16    18    1
    25    17    19    1
