@<TRIPOS>MOLECULE
*****
 26 27 0 0 0
SMALL
GASTEIGER

@<TRIPOS>ATOM
      1 C         140.3106  141.5612  167.7709 C.2     1  UNL1        0.0709
      2 C         139.5204  140.5230  168.5108 C.2     1  UNL1        0.0283
      3 C         139.3137  140.6516  169.9910 C.3     1  UNL1        0.0470
      4 N         138.9368  139.3561  167.7707 N.pl3   1  UNL1       -0.3192
      5 C         139.1434  139.2274  166.2906 C.2     1  UNL1        0.0283
      6 C         138.5598  138.0606  165.5505 C.3     1  UNL1        0.0470
      7 C         139.9336  140.2656  165.5507 C.2     1  UNL1        0.0709
      8 C         140.5172  141.4325  166.2908 C.3     1  UNL1        0.0872
      9 H         138.4181  138.6747  168.2564 H       1  UNL1        0.1516
     10 C         141.3075  142.4708  165.5508 C.ar    1  UNL1        0.0554
     11 C         142.7942  142.3255  165.4144 C.ar    1  UNL1        0.0024
     12 C         143.5845  143.3637  164.6745 C.ar    1  UNL1        0.0001
     13 C         142.8881  144.5472  164.0708 C.ar    1  UNL1        0.0063
     14 C         141.4014  144.6925  164.2071 C.ar    1  UNL1        0.0749
     15 C         140.6111  143.6542  164.9471 C.ar    1  UNL1        0.2866
     16 N         139.1244  143.7995  165.0835 N.pl3   1  UNL1        0.0806
     17 O         137.9520  142.9737  164.6435 O.2     1  UNL1        0.0415
     18 O         138.5491  144.9879  165.7954 O.co2   1  UNL1       -0.5760
     19 C         140.8942  142.7280  168.5110 C.2     1  UNL1        0.3388
     20 O         140.0391  143.9191  168.8275 O.2     1  UNL1       -0.2452
     21 C         142.6904  142.8476  170.3844 C.3     1  UNL1        0.2559
     22 O         142.3329  142.7039  168.9347 O.3     1  UNL1       -0.4415
     23 C         140.1403  140.1370  164.0705 C.2     1  UNL1        0.3388
     24 O         139.7525  140.4133  163.4311 O.2     1  UNL1       -0.2452
     25 O         141.2950  139.3393  163.5410 O.3     1  UNL1       -0.4415
     26 C         142.2610  138.6965  164.4915 C.3     1  UNL1        0.2559
@<TRIPOS>UNITY_ATOM_ATTR
16 1
charge 1
18 1
charge -1
@<TRIPOS>BOND
     1    21    22    1
     2    22    19    1
     3    19    20    2
     4    19     1    1
     5     1     2    2
     6     2     3    1
     7     2     4    1
     8     4     5    1
     9     5     6    1
    10     5     7    2
    11     7    23    1
    12    23    24    2
    13    23    25    1
    14    25    26    1
    15     7     8    1
    16     8    10    1
    17    10    11   ar
    18    11    12   ar
    19    12    13   ar
    20    13    14   ar
    21    14    15   ar
    22    15    16    1
    23    16    17    2
    24    16    18    1
    25     8     1    1
    26    15    10   ar
    27     4     9    1
@<TRIPOS>MOLECULE
*****
 26 27 0 0 0
SMALL
GASTEIGER

@<TRIPOS>ATOM
      1 C         140.1163  141.5788  168.0393 C.2     1  UNL1        0.0709
      2 C         139.6261  140.5084  168.9688 C.2     1  UNL1        0.0283
      3 C         139.8933  140.6135  170.4411 C.3     1  UNL1        0.0470
      4 N         138.8686  139.3330  168.4260 N.pl3   1  UNL1       -0.3192
      5 C         138.6013  139.2279  166.9538 C.2     1  UNL1        0.0283
      6 C         137.8439  138.0524  166.4111 C.3     1  UNL1        0.0470
      7 C         139.0916  140.2982  166.0243 C.2     1  UNL1        0.0709
      8 C         139.8491  141.4737  166.5671 C.3     1  UNL1        0.0872
      9 H         138.5468  138.6305  169.0361 H       1  UNL1        0.1516
     10 C         140.3393  142.5440  165.6375 C.ar    1  UNL1        0.0554
     11 C         139.5212  143.7827  165.4220 C.ar    1  UNL1        0.0024
     12 C         140.0113  144.8530  164.4925 C.ar    1  UNL1        0.0001
     13 C         141.3197  144.6848  163.7784 C.ar    1  UNL1        0.0063
     14 C         142.1379  143.4461  163.9939 C.ar    1  UNL1        0.0749
     15 C         141.6477  142.3758  164.9235 C.ar    1  UNL1        0.2866
     16 N         142.4658  141.1371  165.1390 N.pl3   1  UNL1        0.0806
     17 O         143.2513  140.5955  166.2963 O.2     1  UNL1        0.0415
     18 O         142.6134  140.1340  164.0335 O.co2   1  UNL1       -0.5760
     19 C         140.8738  142.7542  168.5820 C.2     1  UNL1        0.3388
     20 O         140.1327  143.9097  169.1866 O.2     1  UNL1       -0.2452
     21 C         143.1763  142.1056  169.5958 C.3     1  UNL1        0.2559
     22 O         142.3723  142.7741  168.5202 O.3     1  UNL1       -0.4415
     23 C         138.8243  140.1932  164.5520 C.2     1  UNL1        0.3388
     24 O         139.2289  139.8892  163.9361 O.2     1  UNL1       -0.2452
     25 O         137.5507  140.7415  163.9800 O.3     1  UNL1       -0.4415
     26 C         137.5997  141.8134  162.9319 C.3     1  UNL1        0.2559
@<TRIPOS>UNITY_ATOM_ATTR
16 1
charge 1
18 1
charge -1
@<TRIPOS>BOND
     1    21    22    1
     2    22    19    1
     3    19    20    2
     4    19     1    1
     5     1     2    2
     6     2     3    1
     7     2     4    1
     8     4     5    1
     9     5     6    1
    10     5     7    2
    11     7    23    1
    12    23    24    2
    13    23    25    1
    14    25    26    1
    15     7     8    1
    16     8    10    1
    17    10    11   ar
    18    11    12   ar
    19    12    13   ar
    20    13    14   ar
    21    14    15   ar
    22    15    16    1
    23    16    17    2
    24    16    18    1
    25     8     1    1
    26    15    10   ar
    27     4     9    1
@<TRIPOS>MOLECULE
*****
 26 27 0 0 0
SMALL
GASTEIGER

@<TRIPOS>ATOM
      1 C         141.1503  140.4370  167.6954 C.2     1  UNL1        0.0709
      2 C         142.2261  139.5316  168.2178 C.2     1  UNL1        0.0283
      3 C         142.2037  139.0894  169.6510 C.3     1  UNL1        0.0470
      4 N         143.3242  139.0684  167.3070 N.pl3   1  UNL1       -0.3192
      5 C         143.3466  139.5106  165.8739 C.2     1  UNL1        0.0283
      6 C         144.4448  139.0474  164.9632 C.3     1  UNL1        0.0470
      7 C         142.2709  140.4160  165.3515 C.2     1  UNL1        0.0709
      8 C         141.1727  140.8792  166.2622 C.3     1  UNL1        0.0872
      9 H         144.0303  138.4742  167.6499 H       1  UNL1        0.1516
     10 C         140.0968  141.7846  165.7397 C.ar    1  UNL1        0.0554
     11 C         140.2621  143.2730  165.8256 C.ar    1  UNL1        0.0024
     12 C         139.1864  144.1784  165.3031 C.ar    1  UNL1        0.0001
     13 C         137.9453  143.5954  164.6948 C.ar    1  UNL1        0.0063
     14 C         137.7800  142.1070  164.6090 C.ar    1  UNL1        0.0749
     15 C         138.8559  141.2016  165.1315 C.ar    1  UNL1        0.2866
     16 N         138.6906  139.7132  165.0457 N.pl3   1  UNL1        0.0806
     17 O         138.1584  138.6682  165.9809 O.2     1  UNL1        0.0415
     18 O         139.1106  138.9823  163.8049 O.co2   1  UNL1       -0.5760
     19 C         140.0521  140.9002  168.6061 C.2     1  UNL1        0.3388
     20 O         138.9108  139.9829  168.9316 O.2     1  UNL1       -0.2452
     21 C         141.4148  142.9229  169.5014 C.3     1  UNL1        0.2559
     22 O         140.0952  142.2806  169.1913 O.3     1  UNL1       -0.4415
     23 C         142.2932  140.8582  163.9183 C.2     1  UNL1        0.3388
     24 O         141.9931  140.5609  163.2422 O.2     1  UNL1       -0.2452
     25 O         143.0030  142.1227  163.5346 O.3     1  UNL1       -0.4415
     26 C         143.7985  142.8766  164.5586 C.3     1  UNL1        0.2559
@<TRIPOS>UNITY_ATOM_ATTR
16 1
charge 1
18 1
charge -1
@<TRIPOS>BOND
     1    21    22    1
     2    22    19    1
     3    19    20    2
     4    19     1    1
     5     1     2    2
     6     2     3    1
     7     2     4    1
     8     4     5    1
     9     5     6    1
    10     5     7    2
    11     7    23    1
    12    23    24    2
    13    23    25    1
    14    25    26    1
    15     7     8    1
    16     8    10    1
    17    10    11   ar
    18    11    12   ar
    19    12    13   ar
    20    13    14   ar
    21    14    15   ar
    22    15    16    1
    23    16    17    2
    24    16    18    1
    25     8     1    1
    26    15    10   ar
    27     4     9    1
@<TRIPOS>MOLECULE
*****
 26 27 0 0 0
SMALL
GASTEIGER

@<TRIPOS>ATOM
      1 C         142.1052  140.6526  164.8022 C.2     1  UNL1        0.0709
      2 C         143.1873  139.7048  165.2272 C.2     1  UNL1        0.0283
      3 C         144.1730  139.1914  164.2198 C.3     1  UNL1        0.0470
      4 N         143.2839  139.2705  166.6597 N.pl3   1  UNL1       -0.3192
      5 C         142.2982  139.7838  167.6671 C.2     1  UNL1        0.0283
      6 C         142.3948  139.3494  169.0996 C.3     1  UNL1        0.0470
      7 C         141.2161  140.7315  167.2421 C.2     1  UNL1        0.0709
      8 C         141.1196  141.1659  165.8096 C.3     1  UNL1        0.0872
      9 H         143.9941  138.6484  166.9386 H       1  UNL1        0.1516
     10 C         140.0374  142.1137  165.3846 C.ar    1  UNL1        0.0554
     11 C         140.2777  143.5938  165.4263 C.ar    1  UNL1        0.0024
     12 C         139.1955  144.5416  165.0013 C.ar    1  UNL1        0.0001
     13 C         137.8730  144.0093  164.5346 C.ar    1  UNL1        0.0063
     14 C         137.6327  142.5293  164.4929 C.ar    1  UNL1        0.0749
     15 C         138.7149  141.5815  164.9179 C.ar    1  UNL1        0.2866
     16 N         138.4747  140.1014  164.8762 N.pl3   1  UNL1        0.0806
     17 O         138.6770  139.0419  163.8339 O.2     1  UNL1        0.0415
     18 O         137.9098  139.3992  166.0753 O.co2   1  UNL1       -0.5760
     19 C         142.0087  141.0870  163.3697 C.2     1  UNL1        0.3388
     20 O         141.3436  140.1993  162.3600 O.2     1  UNL1       -0.2452
     21 C         143.6030  143.0923  163.8020 C.3     1  UNL1        0.2559
     22 O         142.5772  142.4091  162.9470 O.3     1  UNL1       -0.4415
     23 C         140.2304  141.2450  168.2495 C.2     1  UNL1        0.3388
     24 O         139.5873  140.9340  168.6034 O.2     1  UNL1       -0.2452
     25 O         140.3702  142.6355  168.7943 O.3     1  UNL1       -0.4415
     26 C         141.2680  142.8947  169.9676 C.3     1  UNL1        0.2559
@<TRIPOS>UNITY_ATOM_ATTR
16 1
charge 1
18 1
charge -1
@<TRIPOS>BOND
     1    21    22    1
     2    22    19    1
     3    19    20    2
     4    19     1    1
     5     1     2    2
     6     2     3    1
     7     2     4    1
     8     4     5    1
     9     5     6    1
    10     5     7    2
    11     7    23    1
    12    23    24    2
    13    23    25    1
    14    25    26    1
    15     7     8    1
    16     8    10    1
    17    10    11   ar
    18    11    12   ar
    19    12    13   ar
    20    13    14   ar
    21    14    15   ar
    22    15    16    1
    23    16    17    2
    24    16    18    1
    25     8     1    1
    26    15    10   ar
    27     4     9    1
@<TRIPOS>MOLECULE
*****
 26 27 0 0 0
SMALL
GASTEIGER

@<TRIPOS>ATOM
      1 C         142.8837  140.5701  164.8851 C.2     1  UNL1        0.0709
      2 C         144.0301  141.3261  164.2816 C.2     1  UNL1        0.0283
      3 C         145.3299  140.6278  164.0117 C.3     1  UNL1        0.0470
      4 N         143.8767  142.7805  163.9480 N.pl3   1  UNL1       -0.3192
      5 C         142.5770  143.4788  164.2179 C.2     1  UNL1        0.0283
      6 C         142.4236  144.9332  163.8843 C.3     1  UNL1        0.0470
      7 C         141.4306  142.7228  164.8214 C.2     1  UNL1        0.0709
      8 C         141.5840  141.2685  165.1550 C.3     1  UNL1        0.0872
      9 H         144.6291  143.2767  163.5520 H       1  UNL1        0.1516
     10 C         140.4375  140.5125  165.7585 C.ar    1  UNL1        0.0554
     11 C         139.4799  139.7704  164.8740 C.ar    1  UNL1        0.0024
     12 C         138.3335  139.0144  165.4774 C.ar    1  UNL1        0.0001
     13 C         138.1446  139.0005  166.9654 C.ar    1  UNL1        0.0063
     14 C         139.1022  139.7425  167.8500 C.ar    1  UNL1        0.0749
     15 C         140.2487  140.4985  167.2465 C.ar    1  UNL1        0.2866
     16 N         141.2062  141.2405  168.1310 N.pl3   1  UNL1        0.0806
     17 O         142.5790  140.9461  168.6589 O.2     1  UNL1        0.0415
     18 O         140.8331  142.5868  168.6775 O.co2   1  UNL1       -0.5760
     19 C         143.0371  139.1157  165.2187 C.2     1  UNL1        0.3388
     20 O         143.6859  138.7063  166.5076 O.2     1  UNL1       -0.2452
     21 C         142.7347  138.2525  162.7870 C.3     1  UNL1        0.2559
     22 O         142.5417  138.0708  164.2634 O.3     1  UNL1       -0.4415
     23 C         140.1307  143.4212  165.0913 C.2     1  UNL1        0.3388
     24 O         139.8474  143.8472  165.7027 O.2     1  UNL1       -0.2452
     25 O         139.0355  143.3894  164.0669 O.3     1  UNL1       -0.4415
     26 C         138.6820  144.6339  163.3079 C.3     1  UNL1        0.2559
@<TRIPOS>UNITY_ATOM_ATTR
16 1
charge 1
18 1
charge -1
@<TRIPOS>BOND
     1    21    22    1
     2    22    19    1
     3    19    20    2
     4    19     1    1
     5     1     2    2
     6     2     3    1
     7     2     4    1
     8     4     5    1
     9     5     6    1
    10     5     7    2
    11     7    23    1
    12    23    24    2
    13    23    25    1
    14    25    26    1
    15     7     8    1
    16     8    10    1
    17    10    11   ar
    18    11    12   ar
    19    12    13   ar
    20    13    14   ar
    21    14    15   ar
    22    15    16    1
    23    16    17    2
    24    16    18    1
    25     8     1    1
    26    15    10   ar
    27     4     9    1
@<TRIPOS>MOLECULE
*****
 26 27 0 0 0
SMALL
GASTEIGER

@<TRIPOS>ATOM
      1 C         141.0727  140.8337  168.5897 C.2     1  UNL1        0.0709
      2 C         140.0210  140.2379  169.4778 C.2     1  UNL1        0.0283
      3 C         140.1355  140.3682  170.9677 C.3     1  UNL1        0.0470
      4 N         138.8546  139.5116  168.8759 N.pl3   1  UNL1       -0.3192
      5 C         138.7400  139.3813  167.3860 C.2     1  UNL1        0.0283
      6 C         137.5737  138.6550  166.7842 C.3     1  UNL1        0.0470
      7 C         139.7918  139.9771  166.4980 C.2     1  UNL1        0.0709
      8 C         140.9581  140.7034  167.0998 C.3     1  UNL1        0.0872
      9 H         138.1643  139.1206  169.4588 H       1  UNL1        0.1516
     10 C         142.0099  141.2993  166.2117 C.ar    1  UNL1        0.0554
     11 C         141.9104  142.7355  165.7907 C.ar    1  UNL1        0.0024
     12 C         142.9621  143.3314  164.9026 C.ar    1  UNL1        0.0001
     13 C         144.1135  142.4910  164.4354 C.ar    1  UNL1        0.0063
     14 C         144.2130  141.0547  164.8564 C.ar    1  UNL1        0.0749
     15 C         143.1612  140.4589  165.7445 C.ar    1  UNL1        0.2866
     16 N         143.2608  139.0226  166.1654 N.pl3   1  UNL1        0.0806
     17 O         143.6878  138.3339  167.4276 O.2     1  UNL1        0.0415
     18 O         142.8796  137.9323  165.2082 O.co2   1  UNL1       -0.5760
     19 C         142.2391  141.5600  169.1915 C.2     1  UNL1        0.3388
     20 O         143.4785  140.8047  169.5703 O.2     1  UNL1       -0.2452
     21 C         140.8427  143.6955  169.6809 C.3     1  UNL1        0.2559
     22 O         142.1661  143.0415  169.4146 O.3     1  UNL1       -0.4415
     23 C         139.6772  139.8468  165.0080 C.2     1  UNL1        0.3388
     24 O         139.5026  140.3552  164.4194 O.2     1  UNL1       -0.2452
     25 O         139.9198  138.5206  164.3503 O.3     1  UNL1       -0.4415
     26 C         139.0867  138.1028  163.1751 C.3     1  UNL1        0.2559
@<TRIPOS>UNITY_ATOM_ATTR
16 1
charge 1
18 1
charge -1
@<TRIPOS>BOND
     1    21    22    1
     2    22    19    1
     3    19    20    2
     4    19     1    1
     5     1     2    2
     6     2     3    1
     7     2     4    1
     8     4     5    1
     9     5     6    1
    10     5     7    2
    11     7    23    1
    12    23    24    2
    13    23    25    1
    14    25    26    1
    15     7     8    1
    16     8    10    1
    17    10    11   ar
    18    11    12   ar
    19    12    13   ar
    20    13    14   ar
    21    14    15   ar
    22    15    16    1
    23    16    17    2
    24    16    18    1
    25     8     1    1
    26    15    10   ar
    27     4     9    1
@<TRIPOS>MOLECULE
*****
 26 27 0 0 0
SMALL
GASTEIGER

@<TRIPOS>ATOM
      1 C         141.1528  142.8483  164.4764 C.2     1  UNL1        0.0709
      2 C         142.2249  143.6942  163.8559 C.2     1  UNL1        0.0283
      3 C         141.9016  145.0745  163.3658 C.3     1  UNL1        0.0470
      4 N         143.6204  143.1598  163.7255 N.pl3   1  UNL1       -0.3192
      5 C         143.9438  141.7795  164.2156 C.2     1  UNL1        0.0283
      6 C         145.3393  141.2451  164.0852 C.3     1  UNL1        0.0470
      7 C         142.8717  140.9336  164.8360 C.2     1  UNL1        0.0709
      8 C         141.4762  141.4680  164.9664 C.3     1  UNL1        0.0872
      9 H         144.3241  143.7150  163.3183 H       1  UNL1        0.1516
     10 C         140.4041  140.6220  165.5869 C.ar    1  UNL1        0.0554
     11 C         139.5355  139.7581  164.7213 C.ar    1  UNL1        0.0024
     12 C         138.4634  138.9122  165.3417 C.ar    1  UNL1        0.0001
     13 C         138.2598  138.9301  166.8278 C.ar    1  UNL1        0.0063
     14 C         139.1284  139.7941  167.6934 C.ar    1  UNL1        0.0749
     15 C         140.2005  140.6401  167.0729 C.ar    1  UNL1        0.2866
     16 N         141.0691  141.5040  167.9385 N.pl3   1  UNL1        0.0806
     17 O         142.4910  141.4139  168.4073 O.2     1  UNL1        0.0415
     18 O         140.5177  142.7671  168.5307 O.co2   1  UNL1       -0.5760
     19 C         139.7573  143.3827  164.6067 C.2     1  UNL1        0.3388
     20 O         139.3662  144.1700  165.8221 O.2     1  UNL1       -0.2452
     21 C         137.7822  144.2051  163.1328 C.3     1  UNL1        0.2559
     22 O         138.7529  143.1297  163.5218 O.3     1  UNL1       -0.4415
     23 C         143.1951  139.5533  165.3261 C.2     1  UNL1        0.3388
     24 O         143.5006  139.2633  166.0029 O.2     1  UNL1       -0.2452
     25 O         142.9351  138.3655  164.4477 O.3     1  UNL1       -0.4415
     26 C         142.7681  138.5489  162.9684 C.3     1  UNL1        0.2559
@<TRIPOS>UNITY_ATOM_ATTR
16 1
charge 1
18 1
charge -1
@<TRIPOS>BOND
     1    21    22    1
     2    22    19    1
     3    19    20    2
     4    19     1    1
     5     1     2    2
     6     2     3    1
     7     2     4    1
     8     4     5    1
     9     5     6    1
    10     5     7    2
    11     7    23    1
    12    23    24    2
    13    23    25    1
    14    25    26    1
    15     7     8    1
    16     8    10    1
    17    10    11   ar
    18    11    12   ar
    19    12    13   ar
    20    13    14   ar
    21    14    15   ar
    22    15    16    1
    23    16    17    2
    24    16    18    1
    25     8     1    1
    26    15    10   ar
    27     4     9    1
@<TRIPOS>MOLECULE
*****
 26 27 0 0 0
SMALL
GASTEIGER

@<TRIPOS>ATOM
      1 C         139.1571  139.2119  164.2584 C.2     1  UNL1        0.0709
      2 C         138.4291  139.3927  162.9595 C.2     1  UNL1        0.0283
      3 C         137.9915  138.1936  162.1716 C.3     1  UNL1        0.0470
      4 N         138.1388  140.7727  162.4483 N.pl3   1  UNL1       -0.3192
      5 C         138.5763  141.9718  163.2360 C.2     1  UNL1        0.0283
      6 C         138.2860  143.3518  162.7248 C.3     1  UNL1        0.0470
      7 C         139.3043  141.7910  164.5350 C.2     1  UNL1        0.0709
      8 C         139.5947  140.4110  165.0462 C.3     1  UNL1        0.0872
      9 H         137.6610  140.8914  161.5957 H       1  UNL1        0.1516
     10 C         140.3227  140.2302  166.3452 C.ar    1  UNL1        0.0554
     11 C         139.5602  140.2185  167.6369 C.ar    1  UNL1        0.0024
     12 C         140.2882  140.0377  168.9359 C.ar    1  UNL1        0.0001
     13 C         141.7786  139.8685  168.9432 C.ar    1  UNL1        0.0063
     14 C         142.5411  139.8802  167.6515 C.ar    1  UNL1        0.0749
     15 C         141.8131  140.0610  166.3524 C.ar    1  UNL1        0.2866
     16 N         142.5755  140.0726  165.0607 N.pl3   1  UNL1        0.0806
     17 O         142.5104  140.9127  163.8198 O.2     1  UNL1        0.0415
     18 O         143.6730  139.0767  164.8286 O.co2   1  UNL1       -0.5760
     19 C         139.4475  137.8319  164.7696 C.2     1  UNL1        0.3388
     20 O         138.4273  137.1089  165.5980 O.2     1  UNL1       -0.2452
     21 C         141.3392  137.2872  163.0741 C.3     1  UNL1        0.2559
     22 O         140.7581  137.1749  164.4524 O.3     1  UNL1       -0.4415
     23 C         139.7419  142.9901  165.3228 C.2     1  UNL1        0.3388
     24 O         139.3787  143.4752  165.8407 O.2     1  UNL1       -0.2452
     25 O         141.1497  143.4938  165.2021 O.3     1  UNL1       -0.4415
     26 C         141.5047  144.4774  164.1268 C.3     1  UNL1        0.2559
@<TRIPOS>UNITY_ATOM_ATTR
16 1
charge 1
18 1
charge -1
@<TRIPOS>BOND
     1    21    22    1
     2    22    19    1
     3    19    20    2
     4    19     1    1
     5     1     2    2
     6     2     3    1
     7     2     4    1
     8     4     5    1
     9     5     6    1
    10     5     7    2
    11     7    23    1
    12    23    24    2
    13    23    25    1
    14    25    26    1
    15     7     8    1
    16     8    10    1
    17    10    11   ar
    18    11    12   ar
    19    12    13   ar
    20    13    14   ar
    21    14    15   ar
    22    15    16    1
    23    16    17    2
    24    16    18    1
    25     8     1    1
    26    15    10   ar
    27     4     9    1
@<TRIPOS>MOLECULE
*****
 26 27 0 0 0
SMALL
GASTEIGER

@<TRIPOS>ATOM
      1 C         142.8206  140.6476  164.8977 C.2     1  UNL1        0.0709
      2 C         143.9478  141.4379  164.3021 C.2     1  UNL1        0.0283
      3 C         145.2672  140.7767  164.0328 C.3     1  UNL1        0.0470
      4 N         143.7558  142.8893  163.9756 N.pl3   1  UNL1       -0.3192
      5 C         142.4366  143.5504  164.2448 C.2     1  UNL1        0.0283
      6 C         142.2445  145.0018  163.9184 C.3     1  UNL1        0.0470
      7 C         141.3094  142.7601  164.8404 C.2     1  UNL1        0.0709
      8 C         141.5014  141.3087  165.1668 C.3     1  UNL1        0.0872
      9 H         144.4957  143.4079  163.5847 H       1  UNL1        0.1516
     10 C         140.3741  140.5184  165.7625 C.ar    1  UNL1        0.0554
     11 C         140.1693  140.5070  167.2484 C.ar    1  UNL1        0.0024
     12 C         139.0421  139.7167  167.8441 C.ar    1  UNL1        0.0001
     13 C         138.1196  138.9378  166.9538 C.ar    1  UNL1        0.0063
     14 C         138.3244  138.9492  165.4679 C.ar    1  UNL1        0.0749
     15 C         139.4517  139.7395  164.8722 C.ar    1  UNL1        0.2866
     16 N         139.6566  139.7509  163.3863 N.pl3   1  UNL1        0.0806
     17 O         139.9833  140.8214  162.3877 O.2     1  UNL1        0.0415
     18 O         139.5370  138.4773  162.6030 O.co2   1  UNL1       -0.5760
     19 C         143.0127  139.1962  165.2241 C.2     1  UNL1        0.3388
     20 O         143.6227  138.7966  166.5349 O.2     1  UNL1       -0.2452
     21 C         142.9749  138.2761  162.7947 C.3     1  UNL1        0.2559
     22 O         142.5947  138.1444  164.2398 O.3     1  UNL1       -0.4415
     23 C         139.9900  143.4212  165.1096 C.2     1  UNL1        0.3388
     24 O         139.7116  143.8830  165.6967 O.2     1  UNL1       -0.2452
     25 O         138.8578  143.2584  164.1394 O.3     1  UNL1       -0.4415
     26 C         138.2752  144.4609  163.4580 C.3     1  UNL1        0.2559
@<TRIPOS>UNITY_ATOM_ATTR
16 1
charge 1
18 1
charge -1
@<TRIPOS>BOND
     1    21    22    1
     2    22    19    1
     3    19    20    2
     4    19     1    1
     5     1     2    2
     6     2     3    1
     7     2     4    1
     8     4     5    1
     9     5     6    1
    10     5     7    2
    11     7    23    1
    12    23    24    2
    13    23    25    1
    14    25    26    1
    15     7     8    1
    16     8    10    1
    17    10    11   ar
    18    11    12   ar
    19    12    13   ar
    20    13    14   ar
    21    14    15   ar
    22    15    16    1
    23    16    17    2
    24    16    18    1
    25     8     1    1
    26    15    10   ar
    27     4     9    1
