@<TRIPOS>MOLECULE
*****
 44 49 0 0 0
SMALL
GASTEIGER

@<TRIPOS>ATOM
      1 C         138.7119  141.9842  159.7468 C.3     1  UNL1        0.0546
      2 C         138.2109  140.6433  159.2988 C.3     1  UNL1        0.0180
      3 C         139.3127  139.9673  158.5379 C.3     1  UNL1        0.0311
      4 C         139.6840  138.7207  157.7907 C.3     1  UNL1        0.0973
      5 N         141.0955  138.8735  157.3066 N.am    1  UNL1       -0.2455
      6 C         141.8699  137.8628  156.5137 C.2     1  UNL1        0.4049
      7 O         143.2808  138.1569  156.0979 O.2     1  UNL1       -0.2262
      8 C         141.5966  140.2145  157.7546 C.3     1  UNL1        0.1053
      9 C         140.4948  140.8905  158.5155 C.3     1  UNL1        0.0903
     10 C         140.1234  142.1370  159.2627 C.3     1  UNL1        0.0261
     11 C         141.6767  141.8137  158.4932 C.2     1  UNL1        0.2267
     12 O         141.8628  142.7664  157.3497 O.2     1  UNL1       -0.2748
     13 N         142.6727  141.7842  159.6145 N.am    1  UNL1       -0.2750
     14 C         143.8547  142.7074  159.5922 C.3     1  UNL1        0.1000
     15 C         144.8506  142.6779  160.7135 C.3     1  UNL1        0.0670
     16 C         144.6645  141.7253  161.8570 C.ar    1  UNL1        0.0583
     17 N         145.6605  141.6958  162.9783 N.ar    1  UNL1       -0.2484
     18 C         145.4744  140.7431  164.1219 C.ar    1  UNL1        0.1023
     19 C         144.2924  139.8199  164.1442 C.ar    1  UNL1        0.0902
     20 C         143.2965  139.8494  163.0229 C.ar    1  UNL1        0.0040
     21 C         143.4826  140.8020  161.8793 C.ar    1  UNL1        0.0113
     22 C         142.4867  140.8315  160.7581 C.3     1  UNL1        0.1213
     23 C         144.1063  138.8672  165.2877 C.3     1  UNL1        0.4200
     24 F         143.9202  137.9145  166.4313 F       1  UNL1       -0.1658
     25 F         142.6203  139.0512  165.1992 F       1  UNL1       -0.1658
     26 F         145.5923  138.6832  165.3763 F       1  UNL1       -0.1658
     27 N         137.9375  142.9950  160.5397 N.3     1  UNL1       -0.2975
     28 H         138.1804  143.9121  160.1650 H       1  UNL1        0.1232
     29 C         138.5795  144.3522  162.6601 C.3     1  UNL1        0.1591
     30 C         138.7542  144.4321  164.1477 C.3     1  UNL1        0.1729
     31 O         138.4618  143.2348  165.0026 O.3     1  UNL1       -0.3511
     32 C         137.9946  141.9575  164.3699 C.3     1  UNL1        0.1437
     33 C         137.8198  141.8776  162.8823 C.3     1  UNL1        0.0503
     34 C         138.1123  143.0750  162.0273 C.3     1  UNL1        0.0865
     35 C         140.2164  145.6978  161.1568 C.3     1  UNL1        0.1742
     36 O         138.8719  145.5495  161.8051 O.3     1  UNL1       -0.3496
     37 O         141.2335  136.5579  156.1366 O.3     1  UNL1       -0.4330
     38 C         142.0832  135.3368  155.9449 C.3     1  UNL1        0.2274
     39 C         142.9345  134.8309  157.0717 C.3     1  UNL1        0.1202
     40 N         143.7336  133.5730  156.9017 N.3     1  UNL1       -0.2696
     41 C         143.7437  132.6922  155.6876 C.3     1  UNL1        0.0722
     42 C         144.6792  131.5497  155.9515 C.3     1  UNL1        0.0188
     43 C         145.2472  131.7244  157.3287 C.3     1  UNL1        0.0188
     44 C         144.6628  132.9748  157.9160 C.3     1  UNL1        0.0722
@<TRIPOS>BOND
     1    35    36    1
     2    36    29    1
     3    29    30    1
     4    30    31    1
     5    31    32    1
     6    32    33    1
     7    33    34    1
     8    34    27    1
     9     1    27    1
    10     1     2    1
    11     3     2    1
    12     3     4    1
    13     4     5    1
    14     5     6   am
    15     6     7    2
    16     6    37    1
    17    37    38    1
    18    38    39    1
    19    39    40    1
    20    40    41    1
    21    41    42    1
    22    42    43    1
    23    43    44    1
    24     5     8    1
    25     8     9    1
    26     9    11    1
    27    11    12    2
    28    11    13   am
    29    13    14    1
    30    14    15    1
    31    15    16    1
    32    16    17   ar
    33    17    18   ar
    34    18    19   ar
    35    19    23    1
    36    23    24    1
    37    23    25    1
    38    23    26    1
    39    19    20   ar
    40    20    21   ar
    41    21    22    1
    42     9    10    1
    43    34    29    1
    44    10     1    1
    45     9     3    1
    46    22    13    1
    47    44    40    1
    48    21    16   ar
    49    27    28    1
@<TRIPOS>MOLECULE
*****
 44 49 0 0 0
SMALL
GASTEIGER

@<TRIPOS>ATOM
      1 C         138.6276  141.6756  159.7853 C.3     1  UNL1        0.0546
      2 C         138.0945  140.7084  158.7702 C.3     1  UNL1        0.0180
      3 C         139.2133  139.7929  158.3700 C.3     1  UNL1        0.0311
      4 C         139.5753  138.6294  157.4954 C.3     1  UNL1        0.0973
      5 N         141.0236  138.3116  157.7225 N.am    1  UNL1       -0.2455
      6 C         141.8021  137.2185  157.0523 C.2     1  UNL1        0.4049
      7 O         143.2518  137.0196  157.3820 O.2     1  UNL1       -0.2262
      8 C         141.5567  139.2788  158.7376 C.3     1  UNL1        0.1053
      9 C         140.4379  140.1943  159.1378 C.3     1  UNL1        0.0903
     10 C         140.0759  141.3578  160.0124 C.3     1  UNL1        0.0261
     11 C         141.6624  140.5956  159.9055 C.2     1  UNL1        0.2267
     12 O         142.8438  141.1737  159.1844 O.2     1  UNL1       -0.2748
     13 N         141.7055  140.4190  161.3945 N.am    1  UNL1       -0.2750
     14 C         142.9300  140.8204  162.1623 C.3     1  UNL1        0.1000
     15 C         142.9730  140.6437  163.6512 C.3     1  UNL1        0.0670
     16 C         141.7916  140.0657  164.3723 C.ar    1  UNL1        0.0583
     17 N         141.8346  139.8890  165.8613 N.ar    1  UNL1       -0.2484
     18 C         140.6532  139.3110  166.5825 C.ar    1  UNL1        0.1023
     19 C         139.4287  138.9096  165.8147 C.ar    1  UNL1        0.0902
     20 C         139.3856  139.0863  164.3257 C.ar    1  UNL1        0.0040
     21 C         140.5671  139.6643  163.6046 C.ar    1  UNL1        0.0113
     22 C         140.5240  139.8410  162.1157 C.3     1  UNL1        0.1213
     23 C         138.2472  138.3316  166.5358 C.3     1  UNL1        0.4200
     24 F         137.0658  137.7535  167.2570 F       1  UNL1       -0.1658
     25 F         138.2327  139.5134  167.4594 F       1  UNL1       -0.1658
     26 F         138.2617  137.1497  165.6122 F       1  UNL1       -0.1658
     27 N         137.8491  142.7687  160.4556 N.3     1  UNL1       -0.2975
     28 H         138.0580  143.6306  159.9516 H       1  UNL1        0.1232
     29 C         138.8045  144.2900  162.3324 C.3     1  UNL1        0.1591
     30 C         139.0174  144.5776  163.7891 C.3     1  UNL1        0.1729
     31 O         138.4879  143.6315  164.8256 O.3     1  UNL1       -0.3511
     32 C         137.7454  142.3977  164.4055 C.3     1  UNL1        0.1437
     33 C         137.5324  142.1101  162.9488 C.3     1  UNL1        0.0503
     34 C         138.0620  143.0563  161.9122 C.3     1  UNL1        0.0865
     35 C         140.7739  145.1650  160.8812 C.3     1  UNL1        0.1742
     36 O         139.3341  145.2361  161.2959 O.3     1  UNL1       -0.3496
     37 O         141.1309  136.3244  156.0523 O.3     1  UNL1       -0.4330
     38 C         141.9360  135.3138  155.2905 C.3     1  UNL1        0.2274
     39 C         141.9052  133.8701  155.6964 C.3     1  UNL1        0.1202
     40 N         143.1218  133.2351  156.3020 N.3     1  UNL1       -0.2696
     41 C         143.9747  132.1786  155.6646 C.3     1  UNL1        0.0722
     42 C         145.0791  131.8358  156.6199 C.3     1  UNL1        0.0188
     43 C         144.9087  132.6804  157.8477 C.3     1  UNL1        0.0188
     44 C         143.6991  133.5452  157.6513 C.3     1  UNL1        0.0722
@<TRIPOS>BOND
     1    35    36    1
     2    36    29    1
     3    29    30    1
     4    30    31    1
     5    31    32    1
     6    32    33    1
     7    33    34    1
     8    34    27    1
     9     1    27    1
    10     1     2    1
    11     3     2    1
    12     3     4    1
    13     4     5    1
    14     5     6   am
    15     6     7    2
    16     6    37    1
    17    37    38    1
    18    38    39    1
    19    39    40    1
    20    40    41    1
    21    41    42    1
    22    42    43    1
    23    43    44    1
    24     5     8    1
    25     8     9    1
    26     9    11    1
    27    11    12    2
    28    11    13   am
    29    13    14    1
    30    14    15    1
    31    15    16    1
    32    16    17   ar
    33    17    18   ar
    34    18    19   ar
    35    19    23    1
    36    23    24    1
    37    23    25    1
    38    23    26    1
    39    19    20   ar
    40    20    21   ar
    41    21    22    1
    42     9    10    1
    43    34    29    1
    44    10     1    1
    45     9     3    1
    46    22    13    1
    47    44    40    1
    48    21    16   ar
    49    27    28    1
@<TRIPOS>MOLECULE
*****
 44 49 0 0 0
SMALL
GASTEIGER

@<TRIPOS>ATOM
      1 C         138.1130  140.6071  156.8741 C.3     1  UNL1        0.0546
      2 C         137.7367  142.0040  157.2704 C.3     1  UNL1        0.0180
      3 C         138.8386  142.5560  158.1254 C.3     1  UNL1        0.0311
      4 C         139.2870  143.7605  158.8988 C.3     1  UNL1        0.0973
      5 N         140.6215  143.4491  159.5089 N.am    1  UNL1       -0.2455
      6 C         141.4366  144.3726  160.3651 C.2     1  UNL1        0.4049
      7 O         142.7598  143.9201  160.9076 O.2     1  UNL1       -0.2262
      8 C         140.9978  142.0523  159.1127 C.3     1  UNL1        0.1053
      9 C         139.8960  141.5002  158.2576 C.3     1  UNL1        0.0903
     10 C         139.4475  140.2958  157.4842 C.3     1  UNL1        0.0261
     11 C         140.9533  140.4445  158.3897 C.2     1  UNL1        0.2267
     12 O         141.9164  140.2027  157.2655 O.2     1  UNL1       -0.2748
     13 N         141.0475  139.6305  159.6462 N.am    1  UNL1       -0.2750
     14 C         142.1048  138.5748  159.7783 C.3     1  UNL1        0.1000
     15 C         142.1990  137.7609  161.0347 C.3     1  UNL1        0.0670
     16 C         141.2359  138.0027  162.1590 C.ar    1  UNL1        0.0583
     17 N         141.3301  137.1886  163.4154 N.ar    1  UNL1       -0.2484
     18 C         140.3670  137.4304  164.5397 C.ar    1  UNL1        0.1023
     19 C         139.3097  138.4862  164.4075 C.ar    1  UNL1        0.0902
     20 C         139.2155  139.3002  163.1511 C.ar    1  UNL1        0.0040
     21 C         140.1786  139.0584  162.0269 C.ar    1  UNL1        0.0113
     22 C         140.0844  139.8723  160.7705 C.3     1  UNL1        0.1213
     23 C         138.3466  138.7280  165.5318 C.3     1  UNL1        0.4200
     24 F         137.3834  138.9698  166.6560 F       1  UNL1       -0.1658
     25 F         138.4322  137.2807  165.9164 F       1  UNL1       -0.1658
     26 F         138.2609  140.1753  165.1472 F       1  UNL1       -0.1658
     27 N         137.2980  139.6836  156.0179 N.3     1  UNL1       -0.2975
     28 H         137.9426  139.2480  155.3583 H       1  UNL1        0.1232
     29 C         134.7852  140.3137  155.8216 C.3     1  UNL1        0.1591
     30 C         133.6401  140.8527  155.0164 C.3     1  UNL1        0.1729
     31 O         133.8628  141.3003  153.6022 O.3     1  UNL1       -0.3511
     32 C         135.2306  141.2091  152.9932 C.3     1  UNL1        0.1437
     33 C         136.3757  140.6702  153.7984 C.3     1  UNL1        0.0503
     34 C         136.1529  140.2225  155.2127 C.3     1  UNL1        0.0865
     35 C         133.2275  139.3204  157.6484 C.3     1  UNL1        0.1742
     36 O         134.5625  139.8661  157.2358 O.3     1  UNL1       -0.3496
     37 O         140.9284  145.7486  160.6787 O.3     1  UNL1       -0.4330
     38 C         140.1051  145.9813  161.9108 C.3     1  UNL1        0.2274
     39 C         139.2207  144.8909  162.4389 C.3     1  UNL1        0.1202
     40 N         139.6634  144.0686  163.6127 N.3     1  UNL1       -0.2696
     41 C         140.5365  142.8502  163.5565 C.3     1  UNL1        0.0722
     42 C         140.7235  142.3489  164.9578 C.3     1  UNL1        0.0188
     43 C         139.9660  143.2575  165.8800 C.3     1  UNL1        0.0188
     44 C         139.3108  144.3203  165.0488 C.3     1  UNL1        0.0722
@<TRIPOS>BOND
     1    35    36    1
     2    36    29    1
     3    29    30    1
     4    30    31    1
     5    31    32    1
     6    32    33    1
     7    33    34    1
     8    34    27    1
     9     1    27    1
    10     1     2    1
    11     3     2    1
    12     3     4    1
    13     4     5    1
    14     5     6   am
    15     6     7    2
    16     6    37    1
    17    37    38    1
    18    38    39    1
    19    39    40    1
    20    40    41    1
    21    41    42    1
    22    42    43    1
    23    43    44    1
    24     5     8    1
    25     8     9    1
    26     9    11    1
    27    11    12    2
    28    11    13   am
    29    13    14    1
    30    14    15    1
    31    15    16    1
    32    16    17   ar
    33    17    18   ar
    34    18    19   ar
    35    19    23    1
    36    23    24    1
    37    23    25    1
    38    23    26    1
    39    19    20   ar
    40    20    21   ar
    41    21    22    1
    42     9    10    1
    43    34    29    1
    44    10     1    1
    45     9     3    1
    46    22    13    1
    47    44    40    1
    48    21    16   ar
    49    27    28    1
@<TRIPOS>MOLECULE
*****
 44 49 0 0 0
SMALL
GASTEIGER

@<TRIPOS>ATOM
      1 C         138.2785  140.0531  159.7562 C.3     1  UNL1        0.0546
      2 C         137.9828  141.1781  158.8092 C.3     1  UNL1        0.0180
      3 C         139.1760  141.3602  157.9187 C.3     1  UNL1        0.0311
      4 C         139.7308  142.1680  156.7830 C.3     1  UNL1        0.0973
      5 N         141.1068  141.6548  156.4778 N.am    1  UNL1       -0.2455
      6 C         142.0258  142.1753  155.4126 C.2     1  UNL1        0.4049
      7 O         143.3800  141.5587  155.2235 O.2     1  UNL1       -0.2262
      8 C         141.4026  140.5298  157.4249 C.3     1  UNL1        0.1053
      9 C         140.2093  140.3477  158.3154 C.3     1  UNL1        0.0903
     10 C         139.6546  139.5399  159.4510 C.3     1  UNL1        0.0261
     11 C         141.2425  139.3352  158.7120 C.2     1  UNL1        0.2267
     12 O         141.2846  137.9999  158.0301 O.2     1  UNL1       -0.2748
     13 N         142.2337  139.6581  159.7907 N.am    1  UNL1       -0.2750
     14 C         143.2669  138.6457  160.1874 C.3     1  UNL1        0.1000
     15 C         144.2579  138.9686  161.2660 C.3     1  UNL1        0.0670
     16 C         144.2158  140.3040  161.9479 C.ar    1  UNL1        0.0583
     17 N         145.2070  140.6269  163.0265 N.ar    1  UNL1       -0.2484
     18 C         145.1649  141.9623  163.7084 C.ar    1  UNL1        0.1023
     19 C         144.1317  142.9748  163.3117 C.ar    1  UNL1        0.0902
     20 C         143.1406  142.6518  162.2331 C.ar    1  UNL1        0.0040
     21 C         143.1827  141.3164  161.5512 C.ar    1  UNL1        0.0113
     22 C         142.1916  140.9935  160.4726 C.3     1  UNL1        0.1213
     23 C         144.0896  144.3101  163.9936 C.3     1  UNL1        0.4200
     24 F         144.0475  145.6455  164.6755 F       1  UNL1       -0.1658
     25 F         143.3709  144.8909  162.8119 F       1  UNL1       -0.1658
     26 F         144.8082  143.7294  165.1752 F       1  UNL1       -0.1658
     27 N         137.3596  139.5326  160.8215 N.3     1  UNL1       -0.2975
     28 H         136.5672  140.1733  160.8655 H       1  UNL1        0.1232
     29 C         137.7003  140.4787  163.2170 C.3     1  UNL1        0.1591
     30 C         138.1996  140.3102  164.6214 C.3     1  UNL1        0.1729
     31 O         138.8573  139.0270  165.0347 O.3     1  UNL1       -0.3511
     32 C         139.0158  137.9123  164.0435 C.3     1  UNL1        0.1437
     33 C         138.5165  138.0808  162.6391 C.3     1  UNL1        0.0503
     34 C         137.8588  139.3641  162.2259 C.3     1  UNL1        0.0865
     35 C         137.8319  143.0374  162.7856 C.3     1  UNL1        0.1742
     36 O         137.0426  141.7619  162.8038 O.3     1  UNL1       -0.3496
     37 O         141.5905  143.3123  154.5365 O.3     1  UNL1       -0.4330
     38 C         142.1888  144.6749  154.7236 C.3     1  UNL1        0.2274
     39 C         141.5162  145.6730  155.6189 C.3     1  UNL1        0.1202
     40 N         141.3430  145.3741  157.0786 N.3     1  UNL1       -0.2696
     41 C         140.1596  145.7484  157.9208 C.3     1  UNL1        0.0722
     42 C         140.4080  145.2540  159.3151 C.3     1  UNL1        0.0188
     43 C         141.7449  144.5742  159.3345 C.3     1  UNL1        0.0188
     44 C         142.3228  144.6483  157.9523 C.3     1  UNL1        0.0722
@<TRIPOS>BOND
     1    35    36    1
     2    36    29    1
     3    29    30    1
     4    30    31    1
     5    31    32    1
     6    32    33    1
     7    33    34    1
     8    34    27    1
     9     1    27    1
    10     1     2    1
    11     3     2    1
    12     3     4    1
    13     4     5    1
    14     5     6   am
    15     6     7    2
    16     6    37    1
    17    37    38    1
    18    38    39    1
    19    39    40    1
    20    40    41    1
    21    41    42    1
    22    42    43    1
    23    43    44    1
    24     5     8    1
    25     8     9    1
    26     9    11    1
    27    11    12    2
    28    11    13   am
    29    13    14    1
    30    14    15    1
    31    15    16    1
    32    16    17   ar
    33    17    18   ar
    34    18    19   ar
    35    19    23    1
    36    23    24    1
    37    23    25    1
    38    23    26    1
    39    19    20   ar
    40    20    21   ar
    41    21    22    1
    42     9    10    1
    43    34    29    1
    44    10     1    1
    45     9     3    1
    46    22    13    1
    47    44    40    1
    48    21    16   ar
    49    27    28    1
@<TRIPOS>MOLECULE
*****
 44 49 0 0 0
SMALL
GASTEIGER

@<TRIPOS>ATOM
      1 C         142.3414  138.3705  158.2535 C.3     1  UNL1        0.0546
      2 C         142.6185  139.7840  157.8349 C.3     1  UNL1        0.0180
      3 C         141.6217  140.6733  158.5172 C.3     1  UNL1        0.0311
      4 C         141.1768  142.0965  158.6803 C.3     1  UNL1        0.0973
      5 N         140.0088  142.1122  159.6213 N.am    1  UNL1       -0.2455
      6 C         139.2509  143.3281  160.0657 C.2     1  UNL1        0.4049
      7 O         138.0985  143.1878  161.0155 O.2     1  UNL1       -0.2262
      8 C         139.7317  140.6987  160.0398 C.3     1  UNL1        0.1053
      9 C         140.7285  139.8094  159.3575 C.3     1  UNL1        0.0903
     10 C         141.1733  138.3862  159.1945 C.3     1  UNL1        0.0261
     11 C         139.8354  138.9455  160.1977 C.2     1  UNL1        0.2267
     12 O         138.8644  138.0091  159.5418 O.2     1  UNL1       -0.2748
     13 N         139.9133  139.0181  161.6940 N.am    1  UNL1       -0.2750
     14 C         139.0202  138.1542  162.5342 C.3     1  UNL1        0.1000
     15 C         139.0980  138.2267  164.0304 C.3     1  UNL1        0.0670
     16 C         140.0690  139.1631  164.6864 C.ar    1  UNL1        0.0583
     17 N         140.1469  139.2357  166.1827 N.ar    1  UNL1       -0.2484
     18 C         141.1178  140.1721  166.8386 C.ar    1  UNL1        0.1023
     19 C         142.0110  141.0360  165.9983 C.ar    1  UNL1        0.0902
     20 C         141.9331  140.9635  164.5021 C.ar    1  UNL1        0.0040
     21 C         140.9621  140.0270  163.8462 C.ar    1  UNL1        0.0113
     22 C         140.8842  139.9545  162.3500 C.3     1  UNL1        0.1213
     23 C         142.9819  141.9725  166.6543 C.3     1  UNL1        0.4200
     24 F         143.9529  142.9089  167.3102 F       1  UNL1       -0.1658
     25 F         144.0317  141.5834  165.6559 F       1  UNL1       -0.1658
     26 F         141.9322  142.3616  167.6526 F       1  UNL1       -0.1658
     27 N         143.0993  137.1547  157.8091 N.3     1  UNL1       -0.2975
     28 H         143.9582  137.4871  157.3707 H       1  UNL1        0.1232
     29 C         142.9153  134.7553  156.8299 C.3     1  UNL1        0.1591
     30 C         142.2861  133.7881  155.8714 C.3     1  UNL1        0.1729
     31 O         141.2117  134.2531  154.9337 O.3     1  UNL1       -0.3511
     32 C         140.7665  135.6854  154.9544 C.3     1  UNL1        0.1437
     33 C         141.3957  136.6526  155.9129 C.3     1  UNL1        0.0503
     34 C         142.4701  136.1875  156.8506 C.3     1  UNL1        0.0865
     35 C         144.4802  132.8741  157.7030 C.3     1  UNL1        0.1742
     36 O         143.9897  134.2902  157.7676 O.3     1  UNL1       -0.3496
     37 O         139.6454  144.6841  159.5602 O.3     1  UNL1       -0.4330
     38 C         140.5517  145.5551  160.3787 C.3     1  UNL1        0.2274
     39 C         140.6300  145.3686  161.8650 C.3     1  UNL1        0.1202
     40 N         141.8945  144.8603  162.4915 N.3     1  UNL1       -0.2696
     41 C         142.4580  145.2900  163.8136 C.3     1  UNL1        0.0722
     42 C         143.7293  144.5284  164.0452 C.3     1  UNL1        0.0188
     43 C         143.9516  143.6281  162.8663 C.3     1  UNL1        0.0188
     44 C         142.8176  143.8331  161.9060 C.3     1  UNL1        0.0722
@<TRIPOS>BOND
     1    35    36    1
     2    36    29    1
     3    29    30    1
     4    30    31    1
     5    31    32    1
     6    32    33    1
     7    33    34    1
     8    34    27    1
     9     1    27    1
    10     1     2    1
    11     3     2    1
    12     3     4    1
    13     4     5    1
    14     5     6   am
    15     6     7    2
    16     6    37    1
    17    37    38    1
    18    38    39    1
    19    39    40    1
    20    40    41    1
    21    41    42    1
    22    42    43    1
    23    43    44    1
    24     5     8    1
    25     8     9    1
    26     9    11    1
    27    11    12    2
    28    11    13   am
    29    13    14    1
    30    14    15    1
    31    15    16    1
    32    16    17   ar
    33    17    18   ar
    34    18    19   ar
    35    19    23    1
    36    23    24    1
    37    23    25    1
    38    23    26    1
    39    19    20   ar
    40    20    21   ar
    41    21    22    1
    42     9    10    1
    43    34    29    1
    44    10     1    1
    45     9     3    1
    46    22    13    1
    47    44    40    1
    48    21    16   ar
    49    27    28    1
@<TRIPOS>MOLECULE
*****
 44 49 0 0 0
SMALL
GASTEIGER

@<TRIPOS>ATOM
      1 C         139.4207  143.2740  159.7629 C.3     1  UNL1        0.0546
      2 C         140.2231  143.2148  158.4970 C.3     1  UNL1        0.0180
      3 C         140.0936  141.8320  157.9304 C.3     1  UNL1        0.0311
      4 C         140.5095  140.9407  156.7979 C.3     1  UNL1        0.0973
      5 N         139.8842  139.5945  157.0137 N.am    1  UNL1       -0.2455
      6 C         140.0348  138.3989  156.1204 C.2     1  UNL1        0.4049
      7 O         139.3460  137.1122  156.4668 O.2     1  UNL1       -0.2262
      8 C         139.0818  139.6537  158.2797 C.3     1  UNL1        0.1053
      9 C         139.2113  141.0365  158.8462 C.3     1  UNL1        0.0903
     10 C         138.7954  141.9277  159.9788 C.3     1  UNL1        0.0261
     11 C         138.3289  140.2411  159.7621 C.2     1  UNL1        0.2267
     12 O         136.8799  140.0475  159.4263 O.2     1  UNL1       -0.2748
     13 N         138.8956  139.6392  161.0137 N.am    1  UNL1       -0.2750
     14 C         138.0133  138.8438  161.9296 C.3     1  UNL1        0.1000
     15 C         138.5800  138.2419  163.1812 C.3     1  UNL1        0.0670
     16 C         140.0291  138.4355  163.5169 C.ar    1  UNL1        0.0583
     17 N         140.5958  137.8336  164.7686 N.ar    1  UNL1       -0.2484
     18 C         142.0449  138.0271  165.1044 C.ar    1  UNL1        0.1023
     19 C         142.9272  138.8226  164.1885 C.ar    1  UNL1        0.0902
     20 C         142.3605  139.4244  162.9369 C.ar    1  UNL1        0.0040
     21 C         140.9114  139.2309  162.6011 C.ar    1  UNL1        0.0113
     22 C         140.3447  139.8327  161.3495 C.3     1  UNL1        0.1213
     23 C         144.3763  139.0161  164.5243 C.3     1  UNL1        0.4200
     24 F         145.8253  139.2097  164.8601 F       1  UNL1       -0.1658
     25 F         144.6267  139.5406  163.1414 F       1  UNL1       -0.1658
     26 F         144.1259  138.4917  165.9071 F       1  UNL1       -0.1658
     27 N         139.2701  144.4696  160.6563 N.3     1  UNL1       -0.2975
     28 H         140.0118  145.1221  160.4025 H       1  UNL1        0.1232
     29 C         140.6460  144.3952  162.8588 C.3     1  UNL1        0.1591
     30 C         140.7053  144.2305  164.3486 C.3     1  UNL1        0.1729
     31 O         139.4478  143.9754  165.1255 O.3     1  UNL1       -0.3511
     32 C         138.1310  143.8851  164.4128 C.3     1  UNL1        0.1437
     33 C         138.0718  144.0498  162.9230 C.3     1  UNL1        0.0503
     34 C         139.3293  144.3049  162.1460 C.3     1  UNL1        0.0865
     35 C         143.2404  144.4553  162.7335 C.3     1  UNL1        0.1742
     36 O         141.9035  144.6503  162.0819 O.3     1  UNL1       -0.3496
     37 O         140.8742  138.4900  154.8806 O.3     1  UNL1       -0.4330
     38 C         142.3507  138.2357  154.9543 C.3     1  UNL1        0.2274
     39 C         142.9776  137.8278  156.2546 C.3     1  UNL1        0.1202
     40 N         143.3144  138.8663  157.2832 N.3     1  UNL1       -0.2696
     41 C         142.9638  138.8099  158.7405 C.3     1  UNL1        0.0722
     42 C         143.4936  140.0523  159.3931 C.3     1  UNL1        0.0188
     43 C         144.1716  140.8764  158.3391 C.3     1  UNL1        0.0188
     44 C         144.0608  140.1435  157.0350 C.3     1  UNL1        0.0722
@<TRIPOS>BOND
     1    35    36    1
     2    36    29    1
     3    29    30    1
     4    30    31    1
     5    31    32    1
     6    32    33    1
     7    33    34    1
     8    34    27    1
     9     1    27    1
    10     1     2    1
    11     3     2    1
    12     3     4    1
    13     4     5    1
    14     5     6   am
    15     6     7    2
    16     6    37    1
    17    37    38    1
    18    38    39    1
    19    39    40    1
    20    40    41    1
    21    41    42    1
    22    42    43    1
    23    43    44    1
    24     5     8    1
    25     8     9    1
    26     9    11    1
    27    11    12    2
    28    11    13   am
    29    13    14    1
    30    14    15    1
    31    15    16    1
    32    16    17   ar
    33    17    18   ar
    34    18    19   ar
    35    19    23    1
    36    23    24    1
    37    23    25    1
    38    23    26    1
    39    19    20   ar
    40    20    21   ar
    41    21    22    1
    42     9    10    1
    43    34    29    1
    44    10     1    1
    45     9     3    1
    46    22    13    1
    47    44    40    1
    48    21    16   ar
    49    27    28    1
@<TRIPOS>MOLECULE
*****
 44 49 0 0 0
SMALL
GASTEIGER

@<TRIPOS>ATOM
      1 C         141.3848  143.8724  160.3929 C.3     1  UNL1        0.0546
      2 C         140.0945  144.3472  159.7931 C.3     1  UNL1        0.0180
      3 C         139.5622  143.2546  158.9140 C.3     1  UNL1        0.0311
      4 C         138.4358  142.8727  158.0001 C.3     1  UNL1        0.0973
      5 N         138.7009  141.4866  157.4916 N.am    1  UNL1       -0.2455
      6 C         137.8289  140.7114  156.5489 C.2     1  UNL1        0.4049
      7 O         138.2254  139.3278  156.1264 O.2     1  UNL1       -0.2262
      8 C         139.9913  141.0118  158.0913 C.3     1  UNL1        0.1053
      9 C         140.5235  142.1045  158.9704 C.3     1  UNL1        0.0903
     10 C         141.6499  142.4864  159.8844 C.3     1  UNL1        0.0261
     11 C         141.4849  140.9545  159.0268 C.2     1  UNL1        0.2267
     12 O         142.4944  140.7665  157.9334 O.2     1  UNL1       -0.2748
     13 N         141.4367  139.9923  160.1767 N.am    1  UNL1       -0.2750
     14 C         142.3981  138.8423  160.2331 C.3     1  UNL1        0.1000
     15 C         142.3499  137.8802  161.3829 C.3     1  UNL1        0.0670
     16 C         141.3403  138.0682  162.4763 C.ar    1  UNL1        0.0583
     17 N         141.2922  137.1061  163.6261 N.ar    1  UNL1       -0.2484
     18 C         140.2826  137.2940  164.7195 C.ar    1  UNL1        0.1023
     19 C         139.3212  138.4441  164.6630 C.ar    1  UNL1        0.0902
     20 C         139.3694  139.4062  163.5132 C.ar    1  UNL1        0.0040
     21 C         140.3790  139.2182  162.4198 C.ar    1  UNL1        0.0113
     22 C         140.4272  140.1803  161.2701 C.3     1  UNL1        0.1213
     23 C         138.3117  138.6320  165.7564 C.3     1  UNL1        0.4200
     24 F         137.3021  138.8200  166.8498 F       1  UNL1       -0.1658
     25 F         138.3390  140.1141  165.5269 F       1  UNL1       -0.1658
     26 F         138.2843  137.1500  165.9859 F       1  UNL1       -0.1658
     27 N         142.2569  144.6476  161.3356 N.3     1  UNL1       -0.2975
     28 H         143.1081  144.8814  160.8245 H       1  UNL1        0.1232
     29 C         141.6621  143.6741  163.6697 C.3     1  UNL1        0.1591
     30 C         142.0920  143.0611  164.9695 C.3     1  UNL1        0.1729
     31 O         143.5465  142.8086  165.2349 O.3     1  UNL1       -0.3511
     32 C         144.5713  143.1691  164.2004 C.3     1  UNL1        0.1437
     33 C         144.1414  143.7821  162.9007 C.3     1  UNL1        0.0503
     34 C         142.6867  144.0346  162.6353 C.3     1  UNL1        0.0865
     35 C         139.4472  144.8987  164.2571 C.3     1  UNL1        0.1742
     36 O         140.2075  143.9266  163.4044 O.3     1  UNL1       -0.3496
     37 O         136.5603  141.3198  156.0288 O.3     1  UNL1       -0.4330
     38 C         135.4257  140.4370  155.6007 C.3     1  UNL1        0.2274
     39 C         134.0374  140.9960  155.4995 C.3     1  UNL1        0.1202
     40 N         132.8813  140.2444  156.0898 N.3     1  UNL1       -0.2696
     41 C         132.9477  138.8954  156.7424 C.3     1  UNL1        0.0722
     42 C         131.5633  138.5271  157.1872 C.3     1  UNL1        0.0188
     43 C         130.6414  139.6484  156.8096 C.3     1  UNL1        0.0188
     44 C         131.4560  140.7098  156.1314 C.3     1  UNL1        0.0722
@<TRIPOS>BOND
     1    35    36    1
     2    36    29    1
     3    29    30    1
     4    30    31    1
     5    31    32    1
     6    32    33    1
     7    33    34    1
     8    34    27    1
     9     1    27    1
    10     1     2    1
    11     3     2    1
    12     3     4    1
    13     4     5    1
    14     5     6   am
    15     6     7    2
    16     6    37    1
    17    37    38    1
    18    38    39    1
    19    39    40    1
    20    40    41    1
    21    41    42    1
    22    42    43    1
    23    43    44    1
    24     5     8    1
    25     8     9    1
    26     9    11    1
    27    11    12    2
    28    11    13   am
    29    13    14    1
    30    14    15    1
    31    15    16    1
    32    16    17   ar
    33    17    18   ar
    34    18    19   ar
    35    19    23    1
    36    23    24    1
    37    23    25    1
    38    23    26    1
    39    19    20   ar
    40    20    21   ar
    41    21    22    1
    42     9    10    1
    43    34    29    1
    44    10     1    1
    45     9     3    1
    46    22    13    1
    47    44    40    1
    48    21    16   ar
    49    27    28    1
@<TRIPOS>MOLECULE
*****
 44 49 0 0 0
SMALL
GASTEIGER

@<TRIPOS>ATOM
      1 C         143.2030  142.0926  158.2049 C.3     1  UNL1        0.0546
      2 C         142.9876  141.7796  159.6559 C.3     1  UNL1        0.0180
      3 C         142.2085  142.9086  160.2629 C.3     1  UNL1        0.0311
      4 C         141.5939  143.4130  161.5349 C.3     1  UNL1        0.0973
      5 N         140.9480  144.7354  161.2450 N.am    1  UNL1       -0.2455
      6 C         140.2153  145.5941  162.2329 C.2     1  UNL1        0.4049
      7 O         139.6186  146.8988  161.7950 O.2     1  UNL1       -0.2262
      8 C         141.1635  145.0484  159.7940 C.3     1  UNL1        0.1053
      9 C         141.9425  143.9194  159.1870 C.3     1  UNL1        0.0903
     10 C         142.5572  143.4151  157.9151 C.3     1  UNL1        0.0261
     11 C         141.6766  144.9301  158.1111 C.2     1  UNL1        0.2267
     12 O         142.5802  146.1175  157.9575 O.2     1  UNL1       -0.2748
     13 N         140.5069  144.7535  157.1886 N.am    1  UNL1       -0.2750
     14 C         140.2409  145.7642  156.1127 C.3     1  UNL1        0.1000
     15 C         139.0713  145.5876  155.1904 C.3     1  UNL1        0.0670
     16 C         138.1677  144.4002  155.3440 C.ar    1  UNL1        0.0583
     17 N         136.9980  144.2236  154.4216 N.ar    1  UNL1       -0.2484
     18 C         136.0944  143.0362  154.5751 C.ar    1  UNL1        0.1023
     19 C         136.3604  142.0255  155.6511 C.ar    1  UNL1        0.0902
     20 C         137.5300  142.2021  156.5735 C.ar    1  UNL1        0.0040
     21 C         138.4336  143.3895  156.4199 C.ar    1  UNL1        0.0113
     22 C         139.6033  143.5662  157.3422 C.3     1  UNL1        0.1213
     23 C         135.4568  140.8381  155.8047 C.3     1  UNL1        0.4200
     24 F         134.5531  139.6507  155.9583 F       1  UNL1       -0.1658
     25 F         134.9708  141.0260  154.3981 F       1  UNL1       -0.1658
     26 F         135.9427  140.6502  157.2113 F       1  UNL1       -0.1658
     27 N         143.9358  141.2339  157.2170 N.3     1  UNL1       -0.2975
     28 H         143.9955  140.3010  157.6251 H       1  UNL1        0.1232
     29 C         145.8814  141.0561  155.5044 C.3     1  UNL1        0.1591
     30 C         147.2681  141.4285  155.0704 C.3     1  UNL1        0.1729
     31 O         148.0959  142.3511  155.9151 O.3     1  UNL1       -0.3511
     32 C         147.5370  142.9014  157.1938 C.3     1  UNL1        0.1437
     33 C         146.1503  142.5290  157.6278 C.3     1  UNL1        0.0503
     34 C         145.3225  141.6063  156.7830 C.3     1  UNL1        0.0865
     35 C         144.9921  138.6706  154.9859 C.3     1  UNL1        0.1742
     36 O         145.0535  140.1335  154.6598 O.3     1  UNL1       -0.3496
     37 O         140.0793  145.1481  163.6586 O.3     1  UNL1       -0.4330
     38 C         138.7523  144.6745  164.1728 C.3     1  UNL1        0.2274
     39 C         137.6940  144.2205  163.2115 C.3     1  UNL1        0.1202
     40 N         137.7888  142.8646  162.5771 N.3     1  UNL1       -0.2696
     41 C         138.1357  142.5836  161.1451 C.3     1  UNL1        0.0722
     42 C         138.1147  141.0970  160.9463 C.3     1  UNL1        0.0188
     43 C         137.7548  140.4593  162.2554 C.3     1  UNL1        0.0188
     44 C         137.5534  141.5517  163.2633 C.3     1  UNL1        0.0722
@<TRIPOS>BOND
     1    35    36    1
     2    36    29    1
     3    29    30    1
     4    30    31    1
     5    31    32    1
     6    32    33    1
     7    33    34    1
     8    34    27    1
     9     1    27    1
    10     1     2    1
    11     3     2    1
    12     3     4    1
    13     4     5    1
    14     5     6   am
    15     6     7    2
    16     6    37    1
    17    37    38    1
    18    38    39    1
    19    39    40    1
    20    40    41    1
    21    41    42    1
    22    42    43    1
    23    43    44    1
    24     5     8    1
    25     8     9    1
    26     9    11    1
    27    11    12    2
    28    11    13   am
    29    13    14    1
    30    14    15    1
    31    15    16    1
    32    16    17   ar
    33    17    18   ar
    34    18    19   ar
    35    19    23    1
    36    23    24    1
    37    23    25    1
    38    23    26    1
    39    19    20   ar
    40    20    21   ar
    41    21    22    1
    42     9    10    1
    43    34    29    1
    44    10     1    1
    45     9     3    1
    46    22    13    1
    47    44    40    1
    48    21    16   ar
    49    27    28    1
@<TRIPOS>MOLECULE
*****
 44 49 0 0 0
SMALL
GASTEIGER

@<TRIPOS>ATOM
      1 C         138.1460  142.0019  161.0314 C.3     1  UNL1        0.0546
      2 C         138.3498  141.5176  159.6264 C.3     1  UNL1        0.0180
      3 C         139.2284  142.5058  158.9183 C.3     1  UNL1        0.0311
      4 C         139.8973  142.8172  157.6124 C.3     1  UNL1        0.0973
      5 N         140.6500  144.1048  157.7725 N.am    1  UNL1       -0.2455
      6 C         141.4637  144.7881  156.7136 C.2     1  UNL1        0.4049
      7 O         142.1643  146.0781  157.0219 O.2     1  UNL1       -0.2262
      8 C         140.4463  144.5891  159.1775 C.3     1  UNL1        0.1053
      9 C         139.5677  143.6009  159.8856 C.3     1  UNL1        0.0903
     10 C         138.8987  143.2895  161.1916 C.3     1  UNL1        0.0261
     11 C         139.9069  144.6959  160.8529 C.2     1  UNL1        0.2267
     12 O         139.2249  146.0278  160.7475 O.2     1  UNL1       -0.2748
     13 N         140.9282  144.4592  161.9258 N.am    1  UNL1       -0.2750
     14 C         141.2675  145.5543  162.8931 C.3     1  UNL1        0.1000
     15 C         142.2888  145.3175  163.9659 C.3     1  UNL1        0.0670
     16 C         142.9708  143.9857  164.0713 C.ar    1  UNL1        0.0583
     17 N         143.9921  143.7489  165.1442 N.ar    1  UNL1       -0.2484
     18 C         144.6741  142.4171  165.2497 C.ar    1  UNL1        0.1023
     19 C         144.3348  141.3220  164.2823 C.ar    1  UNL1        0.0902
     20 C         143.3135  141.5588  163.2095 C.ar    1  UNL1        0.0040
     21 C         142.6315  142.8906  163.1040 C.ar    1  UNL1        0.0113
     22 C         141.6103  143.1274  162.0313 C.3     1  UNL1        0.1213
     23 C         145.0168  139.9902  164.3878 C.3     1  UNL1        0.4200
     24 F         145.6988  138.6584  164.4932 F       1  UNL1       -0.1658
     25 F         146.3528  140.6707  164.3417 F       1  UNL1       -0.1658
     26 F         143.6808  139.3097  164.4338 F       1  UNL1       -0.1658
     27 N         137.3324  141.3186  162.0903 N.3     1  UNL1       -0.2975
     28 H         137.0527  142.0382  162.7569 H       1  UNL1        0.1232
     29 C         138.3565  140.4317  164.3071 C.3     1  UNL1        0.1591
     30 C         138.9538  139.3108  165.1052 C.3     1  UNL1        0.1729
     31 O         139.1242  137.9560  164.4845 O.3     1  UNL1       -0.3511
     32 C         138.6973  137.7220  163.0656 C.3     1  UNL1        0.1437
     33 C         138.1000  138.8428  162.2675 C.3     1  UNL1        0.0503
     34 C         137.9296  140.1977  162.8884 C.3     1  UNL1        0.0865
     35 C         139.3588  142.7158  165.0339 C.3     1  UNL1        0.1742
     36 O         138.1861  141.7865  164.9279 O.3     1  UNL1       -0.3496
     37 O         141.5766  144.1813  155.3465 O.3     1  UNL1       -0.4330
     38 C         142.6771  143.2071  155.0470 C.3     1  UNL1        0.2274
     39 C         143.6939  142.8773  156.0994 C.3     1  UNL1        0.1202
     40 N         143.3489  141.9210  157.2022 N.3     1  UNL1       -0.2696
     41 C         142.7417  140.5601  157.0312 C.3     1  UNL1        0.0722
     42 C         142.5679  139.9556  158.3930 C.3     1  UNL1        0.0188
     43 C         143.0677  140.9429  159.4055 C.3     1  UNL1        0.0188
     44 C         143.5504  142.1576  158.6697 C.3     1  UNL1        0.0722
@<TRIPOS>BOND
     1    35    36    1
     2    36    29    1
     3    29    30    1
     4    30    31    1
     5    31    32    1
     6    32    33    1
     7    33    34    1
     8    34    27    1
     9     1    27    1
    10     1     2    1
    11     3     2    1
    12     3     4    1
    13     4     5    1
    14     5     6   am
    15     6     7    2
    16     6    37    1
    17    37    38    1
    18    38    39    1
    19    39    40    1
    20    40    41    1
    21    41    42    1
    22    42    43    1
    23    43    44    1
    24     5     8    1
    25     8     9    1
    26     9    11    1
    27    11    12    2
    28    11    13   am
    29    13    14    1
    30    14    15    1
    31    15    16    1
    32    16    17   ar
    33    17    18   ar
    34    18    19   ar
    35    19    23    1
    36    23    24    1
    37    23    25    1
    38    23    26    1
    39    19    20   ar
    40    20    21   ar
    41    21    22    1
    42     9    10    1
    43    34    29    1
    44    10     1    1
    45     9     3    1
    46    22    13    1
    47    44    40    1
    48    21    16   ar
    49    27    28    1
