@<TRIPOS>MOLECULE
*****
 27 29 0 0 0
SMALL
GASTEIGER

@<TRIPOS>ATOM
      1 N         141.8090  139.7010  164.2216 N.am    1  UNL1       -0.2681
      2 C         140.9337  139.7976  163.0073 C.2     1  UNL1        0.3078
      3 O         139.5970  140.4723  163.0981 O.2     1  UNL1       -0.2522
      4 N         141.3949  139.2195  161.7023 N.am    1  UNL1       -0.2605
      5 C         140.5195  139.3161  160.4881 C.3     1  UNL1        0.1164
      6 C         140.9808  138.7380  159.1830 C.3     1  UNL1        0.1137
      7 N         142.3174  138.0633  159.0923 N.pl3   1  UNL1       -0.2891
      8 C         143.1928  137.9667  160.3065 C.3     1  UNL1        0.1137
      9 C         142.7315  138.5448  161.6116 C.3     1  UNL1        0.1164
     10 H         142.6863  139.2581  164.1620 H       1  UNL1        0.1564
     11 C         142.7787  137.4852  157.7873 C.ar    1  UNL1        0.1424
     12 N         142.8056  135.9980  157.5936 N.ar    1  UNL1       -0.2283
     13 C         143.2668  135.4199  156.2886 C.ar    1  UNL1        0.1004
     14 C         143.7012  136.3290  155.1773 C.ar    1  UNL1        0.0216
     15 C         143.6742  137.8162  155.3710 C.ar    1  UNL1        0.0158
     16 C         143.2130  138.3943  156.6760 C.ar    1  UNL1        0.0892
     17 CL        143.1861  139.8814  156.8698 Cl      1  UNL1       -0.0793
     18 C         140.4253  141.4353  168.1366 C.ar    1  UNL1       -0.0227
     19 C         139.8736  140.1243  167.6603 C.ar    1  UNL1       -0.0030
     20 C         140.3348  139.5462  166.3553 C.ar    1  UNL1        0.0144
     21 C         141.3478  140.2791  165.5266 C.ar    1  UNL1        0.0516
     22 C         141.8995  141.5900  166.0029 C.ar    1  UNL1        0.0144
     23 C         141.4383  142.1681  167.3080 C.ar    1  UNL1       -0.0030
     24 C         140.5582  143.3381  169.0648 C.3     1  UNL1        0.0044
     25 C         139.9641  142.0134  169.4416 C.3     1  UNL1        0.0189
     26 C         139.3699  140.6886  169.8185 C.3     1  UNL1        0.0044
     27 C         139.5028  142.5915  170.7466 C.3     1  UNL1        0.0044
@<TRIPOS>BOND
     1    24    25    1
     2    25    26    1
     3    25    27    1
     4    25    18    1
     5    18    19   ar
     6    19    20   ar
     7    20    21   ar
     8    21     1    1
     9     1     2   am
    10     2     3    2
    11     2     4   am
    12     4     5    1
    13     5     6    1
    14     6     7    1
    15     7    11    1
    16    11    12   ar
    17    12    13   ar
    18    13    14   ar
    19    14    15   ar
    20    15    16   ar
    21    16    17    1
    22     7     8    1
    23     8     9    1
    24    21    22   ar
    25    22    23   ar
    26    23    18   ar
    27     9     4    1
    28    16    11   ar
    29     1    10    1
@<TRIPOS>MOLECULE
*****
 27 29 0 0 0
SMALL
GASTEIGER

@<TRIPOS>ATOM
      1 N         142.4278  137.2700  157.8657 N.am    1  UNL1       -0.2681
      2 C         143.1818  138.5458  157.6342 C.2     1  UNL1        0.3078
      3 O         143.9542  138.7405  156.3631 O.2     1  UNL1       -0.2522
      4 N         143.1635  139.6270  158.6738 N.am    1  UNL1       -0.2605
      5 C         143.9176  140.9029  158.4422 C.3     1  UNL1        0.1164
      6 C         143.8993  141.9841  159.4818 C.3     1  UNL1        0.1137
      7 N         143.1269  141.7894  160.7529 N.pl3   1  UNL1       -0.2891
      8 C         142.3729  140.5136  160.9844 C.3     1  UNL1        0.1137
      9 C         142.3912  139.4324  159.9448 C.3     1  UNL1        0.1164
     10 H         141.9209  137.1422  158.7000 H       1  UNL1        0.1564
     11 C         143.1086  142.8706  161.7924 C.ar    1  UNL1        0.1424
     12 N         141.9873  143.8667  161.8189 N.ar    1  UNL1       -0.2283
     13 C         141.9690  144.9479  162.8584 C.ar    1  UNL1        0.1004
     14 C         143.0720  145.0330  163.8715 C.ar    1  UNL1        0.0216
     15 C         144.1932  144.0370  163.8450 C.ar    1  UNL1        0.0158
     16 C         144.2115  142.9558  162.8054 C.ar    1  UNL1        0.0892
     17 CL        145.3327  141.9598  162.7789 Cl      1  UNL1       -0.0793
     18 C         142.4828  134.0263  154.7471 C.ar    1  UNL1       -0.0227
     19 C         141.3991  135.0633  154.7316 C.ar    1  UNL1       -0.0030
     20 C         141.3808  136.1445  155.7712 C.ar    1  UNL1        0.0144
     21 C         142.4461  136.1887  156.8262 C.ar    1  UNL1        0.0516
     22 C         143.5298  135.1517  156.8416 C.ar    1  UNL1        0.0144
     23 C         143.5481  134.0705  155.8021 C.ar    1  UNL1       -0.0030
     24 C         141.7218  133.8266  152.7770 C.3     1  UNL1        0.0044
     25 C         142.5011  132.9451  153.7075 C.3     1  UNL1        0.0189
     26 C         143.2803  132.0637  154.6380 C.3     1  UNL1        0.0044
     27 C         142.5194  131.8639  152.6680 C.3     1  UNL1        0.0044
@<TRIPOS>BOND
     1    24    25    1
     2    25    26    1
     3    25    27    1
     4    25    18    1
     5    18    19   ar
     6    19    20   ar
     7    20    21   ar
     8    21     1    1
     9     1     2   am
    10     2     3    2
    11     2     4   am
    12     4     5    1
    13     5     6    1
    14     6     7    1
    15     7    11    1
    16    11    12   ar
    17    12    13   ar
    18    13    14   ar
    19    14    15   ar
    20    15    16   ar
    21    16    17    1
    22     7     8    1
    23     8     9    1
    24    21    22   ar
    25    22    23   ar
    26    23    18   ar
    27     9     4    1
    28    16    11   ar
    29     1    10    1
@<TRIPOS>MOLECULE
*****
 27 29 0 0 0
SMALL
GASTEIGER

@<TRIPOS>ATOM
      1 N         142.0978  140.5464  164.2609 N.am    1  UNL1       -0.2681
      2 C         141.5804  141.2141  163.0214 C.2     1  UNL1        0.3078
      3 O         140.5368  142.2864  163.1270 O.2     1  UNL1       -0.2522
      4 N         142.1065  140.8094  161.6762 N.am    1  UNL1       -0.2605
      5 C         141.5891  141.4772  160.4366 C.3     1  UNL1        0.1164
      6 C         142.1152  141.0725  159.0915 C.3     1  UNL1        0.1137
      7 N         143.1588  140.0002  158.9859 N.pl3   1  UNL1       -0.2891
      8 C         143.6762  139.3325  160.2254 C.3     1  UNL1        0.1137
      9 C         143.1500  139.7372  161.5706 C.3     1  UNL1        0.1164
     10 H         142.7827  139.8426  164.1916 H       1  UNL1        0.1564
     11 C         143.6849  139.5956  157.6407 C.ar    1  UNL1        0.1424
     12 N         144.8544  140.3208  157.0436 N.ar    1  UNL1       -0.2283
     13 C         145.3805  139.9162  155.6985 C.ar    1  UNL1        0.1004
     14 C         144.7372  138.7863  154.9504 C.ar    1  UNL1        0.0216
     15 C         143.5677  138.0611  155.5475 C.ar    1  UNL1        0.0158
     16 C         143.0416  138.4658  156.8926 C.ar    1  UNL1        0.0892
     17 CL        141.8722  137.7406  157.4897 Cl      1  UNL1       -0.0793
     18 C         140.5194  141.7603  168.2964 C.ar    1  UNL1       -0.0227
     19 C         139.8376  140.6725  167.5206 C.ar    1  UNL1       -0.0030
     20 C         140.3637  140.2679  166.1754 C.ar    1  UNL1        0.0144
     21 C         141.5717  140.9511  165.6061 C.ar    1  UNL1        0.0516
     22 C         142.2534  142.0388  166.3818 C.ar    1  UNL1        0.0144
     23 C         141.7273  142.4434  167.7270 C.ar    1  UNL1       -0.0030
     24 C         140.5988  143.5264  169.4689 C.3     1  UNL1        0.0044
     25 C         139.9933  142.1649  169.6415 C.3     1  UNL1        0.0189
     26 C         139.3877  140.8035  169.8142 C.3     1  UNL1        0.0044
     27 C         139.4671  142.5696  170.9867 C.3     1  UNL1        0.0044
@<TRIPOS>BOND
     1    24    25    1
     2    25    26    1
     3    25    27    1
     4    25    18    1
     5    18    19   ar
     6    19    20   ar
     7    20    21   ar
     8    21     1    1
     9     1     2   am
    10     2     3    2
    11     2     4   am
    12     4     5    1
    13     5     6    1
    14     6     7    1
    15     7    11    1
    16    11    12   ar
    17    12    13   ar
    18    13    14   ar
    19    14    15   ar
    20    15    16   ar
    21    16    17    1
    22     7     8    1
    23     8     9    1
    24    21    22   ar
    25    22    23   ar
    26    23    18   ar
    27     9     4    1
    28    16    11   ar
    29     1    10    1
@<TRIPOS>MOLECULE
*****
 27 29 0 0 0
SMALL
GASTEIGER

@<TRIPOS>ATOM
      1 N         141.2363  143.2713  163.4645 N.am    1  UNL1       -0.2681
      2 C         140.4487  142.7215  162.3125 C.2     1  UNL1        0.3078
      3 O         139.7068  141.4262  162.4613 O.2     1  UNL1       -0.2522
      4 N         140.4029  143.4668  161.0115 N.am    1  UNL1       -0.2605
      5 C         139.6152  142.9169  159.8595 C.3     1  UNL1        0.1164
      6 C         139.5694  143.6622  158.5585 C.3     1  UNL1        0.1137
      7 N         140.3113  144.9574  158.4097 N.pl3   1  UNL1       -0.2891
      8 C         141.0989  145.5072  159.5618 C.3     1  UNL1        0.1137
      9 C         141.1447  144.7619  160.8627 C.3     1  UNL1        0.1164
     10 H         141.7232  144.1214  163.3668 H       1  UNL1        0.1564
     11 C         140.2655  145.7027  157.1088 C.ar    1  UNL1        0.1424
     12 N         139.2803  146.8177  156.9174 N.ar    1  UNL1       -0.2283
     13 C         139.2345  147.5630  155.6165 C.ar    1  UNL1        0.1004
     14 C         140.1739  147.1934  154.5069 C.ar    1  UNL1        0.0216
     15 C         141.1590  146.0785  154.6983 C.ar    1  UNL1        0.0158
     16 C         141.2048  145.3332  155.9992 C.ar    1  UNL1        0.0892
     17 CL        142.1898  144.2183  156.1906 Cl      1  UNL1       -0.0793
     18 C         141.3737  141.0353  167.3673 C.ar    1  UNL1       -0.0227
     19 C         140.3507  142.1116  167.1552 C.ar    1  UNL1       -0.0030
     20 C         140.3049  142.8569  165.8542 C.ar    1  UNL1        0.0144
     21 C         141.2821  142.5260  164.7654 C.ar    1  UNL1        0.0516
     22 C         142.3051  141.4497  164.9776 C.ar    1  UNL1        0.0144
     23 C         142.3509  140.7044  166.2785 C.ar    1  UNL1       -0.0030
     24 C         140.2388  141.0742  169.1591 C.3     1  UNL1        0.0044
     25 C         141.4195  140.2900  168.6682 C.3     1  UNL1        0.0189
     26 C         142.6002  139.5058  168.1774 C.3     1  UNL1        0.0044
     27 C         141.4653  139.5447  169.9691 C.3     1  UNL1        0.0044
@<TRIPOS>BOND
     1    24    25    1
     2    25    26    1
     3    25    27    1
     4    25    18    1
     5    18    19   ar
     6    19    20   ar
     7    20    21   ar
     8    21     1    1
     9     1     2   am
    10     2     3    2
    11     2     4   am
    12     4     5    1
    13     5     6    1
    14     6     7    1
    15     7    11    1
    16    11    12   ar
    17    12    13   ar
    18    13    14   ar
    19    14    15   ar
    20    15    16   ar
    21    16    17    1
    22     7     8    1
    23     8     9    1
    24    21    22   ar
    25    22    23   ar
    26    23    18   ar
    27     9     4    1
    28    16    11   ar
    29     1    10    1
@<TRIPOS>MOLECULE
*****
 27 29 0 0 0
SMALL
GASTEIGER

@<TRIPOS>ATOM
      1 N         140.3688  140.2627  163.7467 N.am    1  UNL1       -0.2681
      2 C         139.2767  140.6083  162.7783 C.2     1  UNL1        0.3078
      3 O         138.0853  141.3938  163.2405 O.2     1  UNL1       -0.2522
      4 N         139.3760  140.1685  161.3477 N.am    1  UNL1       -0.2605
      5 C         138.2838  140.5142  160.3792 C.3     1  UNL1        0.1164
      6 C         138.3831  140.0743  158.9486 C.3     1  UNL1        0.1137
      7 N         139.5746  139.2889  158.4864 N.pl3   1  UNL1       -0.2891
      8 C         140.6666  138.9433  159.4548 C.3     1  UNL1        0.1137
      9 C         140.5674  139.3831  160.8854 C.3     1  UNL1        0.1164
     10 H         141.1508  139.7472  163.4433 H       1  UNL1        0.1564
     11 C         139.6738  138.8490  157.0558 C.ar    1  UNL1        0.1424
     12 N         139.1824  137.4902  156.6531 N.ar    1  UNL1       -0.2283
     13 C         139.2816  137.0504  155.2224 C.ar    1  UNL1        0.1004
     14 C         139.8724  137.9694  154.1945 C.ar    1  UNL1        0.0216
     15 C         140.3638  139.3281  154.5973 C.ar    1  UNL1        0.0158
     16 C         140.2645  139.7679  156.0279 C.ar    1  UNL1        0.0892
     17 CL        140.7559  141.1267  156.4306 Cl      1  UNL1       -0.0793
     18 C         140.0710  141.5822  168.0386 C.ar    1  UNL1       -0.0227
     19 C         140.5792  142.5326  166.9953 C.ar    1  UNL1       -0.0030
     20 C         140.6785  142.0928  165.5647 C.ar    1  UNL1        0.0144
     21 C         140.2695  140.7026  165.1773 C.ar    1  UNL1        0.0516
     22 C         139.7614  139.7522  166.2206 C.ar    1  UNL1        0.0144
     23 C         139.6621  140.1920  167.6512 C.ar    1  UNL1       -0.0030
     24 C         140.5763  143.3454  169.1043 C.3     1  UNL1        0.0044
     25 C         139.9717  142.0221  169.4692 C.3     1  UNL1        0.0189
     26 C         139.3671  140.6987  169.8341 C.3     1  UNL1        0.0044
     27 C         139.8725  142.4619  170.8998 C.3     1  UNL1        0.0044
@<TRIPOS>BOND
     1    24    25    1
     2    25    26    1
     3    25    27    1
     4    25    18    1
     5    18    19   ar
     6    19    20   ar
     7    20    21   ar
     8    21     1    1
     9     1     2   am
    10     2     3    2
    11     2     4   am
    12     4     5    1
    13     5     6    1
    14     6     7    1
    15     7    11    1
    16    11    12   ar
    17    12    13   ar
    18    13    14   ar
    19    14    15   ar
    20    15    16   ar
    21    16    17    1
    22     7     8    1
    23     8     9    1
    24    21    22   ar
    25    22    23   ar
    26    23    18   ar
    27     9     4    1
    28    16    11   ar
    29     1    10    1
@<TRIPOS>MOLECULE
*****
 27 29 0 0 0
SMALL
GASTEIGER

@<TRIPOS>ATOM
      1 N         141.0258  142.7083  163.3055 N.am    1  UNL1       -0.2681
      2 C         140.9462  144.0237  162.5891 C.2     1  UNL1        0.3078
      3 O         141.1077  145.3047  163.3527 O.2     1  UNL1       -0.2522
      4 N         140.7051  144.0582  161.1090 N.am    1  UNL1       -0.2605
      5 C         140.6254  145.3737  160.3925 C.3     1  UNL1        0.1164
      6 C         140.3843  145.4082  158.9124 C.3     1  UNL1        0.1137
      7 N         140.2228  144.1272  158.1488 N.pl3   1  UNL1       -0.2891
      8 C         140.3025  142.8118  158.8652 C.3     1  UNL1        0.1137
      9 C         140.5436  142.7773  160.3453 C.3     1  UNL1        0.1164
     10 H         140.9198  141.8676  162.8043 H       1  UNL1        0.1564
     11 C         139.9817  144.1616  156.6687 C.ar    1  UNL1        0.1424
     12 N         138.5793  144.1476  156.1367 N.ar    1  UNL1       -0.2283
     13 C         138.3381  144.1821  154.6566 C.ar    1  UNL1        0.1004
     14 C         139.4995  144.2306  153.7085 C.ar    1  UNL1        0.0216
     15 C         140.9019  144.2446  154.2405 C.ar    1  UNL1        0.0158
     16 C         141.1430  144.2102  155.7205 C.ar    1  UNL1        0.0892
     17 CL        142.5454  144.2242  156.2525 Cl      1  UNL1       -0.0793
     18 C         141.7491  142.6049  167.7458 C.ar    1  UNL1       -0.0227
     19 C         140.3694  142.8624  167.2165 C.ar    1  UNL1       -0.0030
     20 C         140.1283  142.8968  165.7364 C.ar    1  UNL1        0.0144
     21 C         141.2669  142.6739  164.7856 C.ar    1  UNL1        0.0516
     22 C         142.6465  142.4164  165.3150 C.ar    1  UNL1        0.0144
     23 C         142.8876  142.3819  166.7951 C.ar    1  UNL1       -0.0030
     24 C         143.3862  142.0763  168.9870 C.3     1  UNL1        0.0044
     25 C         141.9902  142.5704  169.2259 C.3     1  UNL1        0.0189
     26 C         140.5942  143.0645  169.4648 C.3     1  UNL1        0.0044
     27 C         142.2313  142.5359  170.7060 C.3     1  UNL1        0.0044
@<TRIPOS>BOND
     1    24    25    1
     2    25    26    1
     3    25    27    1
     4    25    18    1
     5    18    19   ar
     6    19    20   ar
     7    20    21   ar
     8    21     1    1
     9     1     2   am
    10     2     3    2
    11     2     4   am
    12     4     5    1
    13     5     6    1
    14     6     7    1
    15     7    11    1
    16    11    12   ar
    17    12    13   ar
    18    13    14   ar
    19    14    15   ar
    20    15    16   ar
    21    16    17    1
    22     7     8    1
    23     8     9    1
    24    21    22   ar
    25    22    23   ar
    26    23    18   ar
    27     9     4    1
    28    16    11   ar
    29     1    10    1
@<TRIPOS>MOLECULE
*****
 27 29 0 0 0
SMALL
GASTEIGER

@<TRIPOS>ATOM
      1 N         142.6677  142.5929  163.8602 N.am    1  UNL1       -0.2681
      2 C         142.8300  141.3333  163.0620 C.2     1  UNL1        0.3078
      3 O         142.5874  140.0006  163.7063 O.2     1  UNL1       -0.2522
      4 N         143.2349  141.4064  161.6195 N.am    1  UNL1       -0.2605
      5 C         143.3972  140.1468  160.8213 C.3     1  UNL1        0.1164
      6 C         143.8021  140.2198  159.3789 C.3     1  UNL1        0.1137
      7 N         144.0448  141.5526  158.7346 N.pl3   1  UNL1       -0.2891
      8 C         143.8825  142.8121  159.5328 C.3     1  UNL1        0.1137
      9 C         143.4776  142.7390  160.9752 C.3     1  UNL1        0.1164
     10 H         142.8270  143.4676  163.4373 H       1  UNL1        0.1564
     11 C         144.4497  141.6256  157.2921 C.ar    1  UNL1        0.1424
     12 N         145.9021  141.6949  156.9234 N.ar    1  UNL1       -0.2283
     13 C         146.3070  141.7680  155.4810 C.ar    1  UNL1        0.1004
     14 C         145.2595  141.7718  154.4072 C.ar    1  UNL1        0.0216
     15 C         143.8073  141.7025  154.7759 C.ar    1  UNL1        0.0158
     16 C         143.4023  141.6294  156.2184 C.ar    1  UNL1        0.0892
     17 CL        141.9500  141.5602  156.5871 Cl      1  UNL1       -0.0793
     18 C         141.4530  142.3737  168.1875 C.ar    1  UNL1       -0.0227
     19 C         140.4340  142.7067  167.1385 C.ar    1  UNL1       -0.0030
     20 C         140.8389  142.7798  165.6960 C.ar    1  UNL1        0.0144
     21 C         142.2628  142.5198  165.3026 C.ar    1  UNL1        0.0516
     22 C         143.2818  142.1867  166.3517 C.ar    1  UNL1        0.0144
     23 C         142.8769  142.1137  167.7942 C.ar    1  UNL1       -0.0030
     24 C         140.3831  143.6399  169.5112 C.3     1  UNL1        0.0044
     25 C         141.0481  142.3006  169.6300 C.3     1  UNL1        0.0189
     26 C         141.7130  140.9613  169.7488 C.3     1  UNL1        0.0044
     27 C         140.6431  142.2275  171.0725 C.3     1  UNL1        0.0044
@<TRIPOS>BOND
     1    24    25    1
     2    25    26    1
     3    25    27    1
     4    25    18    1
     5    18    19   ar
     6    19    20   ar
     7    20    21   ar
     8    21     1    1
     9     1     2   am
    10     2     3    2
    11     2     4   am
    12     4     5    1
    13     5     6    1
    14     6     7    1
    15     7    11    1
    16    11    12   ar
    17    12    13   ar
    18    13    14   ar
    19    14    15   ar
    20    15    16   ar
    21    16    17    1
    22     7     8    1
    23     8     9    1
    24    21    22   ar
    25    22    23   ar
    26    23    18   ar
    27     9     4    1
    28    16    11   ar
    29     1    10    1
@<TRIPOS>MOLECULE
*****
 27 29 0 0 0
SMALL
GASTEIGER

@<TRIPOS>ATOM
      1 N         142.9241  139.9881  163.7484 N.am    1  UNL1       -0.2681
      2 C         141.7529  139.5869  162.9016 C.2     1  UNL1        0.3078
      3 O         140.4051  139.3905  163.5302 O.2     1  UNL1       -0.2522
      4 N         141.9293  139.3822  161.4261 N.am    1  UNL1       -0.2605
      5 C         140.7580  138.9809  160.5793 C.3     1  UNL1        0.1164
      6 C         140.9344  138.7762  159.1038 C.3     1  UNL1        0.1137
      7 N         142.2822  138.9726  158.4752 N.pl3   1  UNL1       -0.2891
      8 C         143.4534  139.3737  159.3221 C.3     1  UNL1        0.1137
      9 C         143.2770  139.5785  160.7975 C.3     1  UNL1        0.1164
     10 H         143.8087  140.1170  163.3359 H       1  UNL1        0.1564
     11 C         142.4586  138.7678  156.9998 C.ar    1  UNL1        0.1424
     12 N         142.3099  139.9264  156.0587 N.ar    1  UNL1       -0.2283
     13 C         142.4863  139.7216  154.5833 C.ar    1  UNL1        0.1004
     14 C         142.8115  138.3582  154.0489 C.ar    1  UNL1        0.0216
     15 C         142.9602  137.1997  154.9900 C.ar    1  UNL1        0.0158
     16 C         142.7838  137.4045  156.4654 C.ar    1  UNL1        0.0892
     17 CL        142.9325  136.2459  157.4065 Cl      1  UNL1       -0.0793
     18 C         142.3948  140.6025  168.1748 C.ar    1  UNL1       -0.0227
     19 C         142.7949  139.2567  167.6469 C.ar    1  UNL1       -0.0030
     20 C         142.9713  139.0519  166.1715 C.ar    1  UNL1        0.0144
     21 C         142.7477  140.1929  165.2239 C.ar    1  UNL1        0.0516
     22 C         142.3477  141.5387  165.7517 C.ar    1  UNL1        0.0144
     23 C         142.1712  141.7435  167.2272 C.ar    1  UNL1       -0.0030
     24 C         141.0995  139.8083  169.6551 C.3     1  UNL1        0.0044
     25 C         142.2184  140.8073  169.6502 C.3     1  UNL1        0.0189
     26 C         143.3373  141.8063  169.6453 C.3     1  UNL1        0.0044
     27 C         142.0420  141.0121  171.1256 C.3     1  UNL1        0.0044
@<TRIPOS>BOND
     1    24    25    1
     2    25    26    1
     3    25    27    1
     4    25    18    1
     5    18    19   ar
     6    19    20   ar
     7    20    21   ar
     8    21     1    1
     9     1     2   am
    10     2     3    2
    11     2     4   am
    12     4     5    1
    13     5     6    1
    14     6     7    1
    15     7    11    1
    16    11    12   ar
    17    12    13   ar
    18    13    14   ar
    19    14    15   ar
    20    15    16   ar
    21    16    17    1
    22     7     8    1
    23     8     9    1
    24    21    22   ar
    25    22    23   ar
    26    23    18   ar
    27     9     4    1
    28    16    11   ar
    29     1    10    1
@<TRIPOS>MOLECULE
*****
 27 29 0 0 0
SMALL
GASTEIGER

@<TRIPOS>ATOM
      1 N         142.4876  136.0653  156.9277 N.am    1  UNL1       -0.2681
      2 C         143.2704  137.3054  156.6130 C.2     1  UNL1        0.3078
      3 O         144.4616  137.2301  155.7044 O.2     1  UNL1       -0.2522
      4 N         142.8622  138.6210  157.2069 N.am    1  UNL1       -0.2605
      5 C         143.6452  139.8612  156.8922 C.3     1  UNL1        0.1164
      6 C         143.2370  141.1767  157.4861 C.3     1  UNL1        0.1137
      7 N         142.0458  141.2521  158.3948 N.pl3   1  UNL1       -0.2891
      8 C         141.2629  140.0119  158.7094 C.3     1  UNL1        0.1137
      9 C         141.6711  138.6964  158.1155 C.3     1  UNL1        0.1164
     10 H         141.7058  136.1148  157.5241 H       1  UNL1        0.1564
     11 C         141.6376  142.5676  158.9887 C.ar    1  UNL1        0.1424
     12 N         142.1916  142.9957  160.3153 N.ar    1  UNL1       -0.2283
     13 C         141.7834  144.3113  160.9092 C.ar    1  UNL1        0.1004
     14 C         140.8212  145.1987  160.1765 C.ar    1  UNL1        0.0216
     15 C         140.2673  144.7705  158.8499 C.ar    1  UNL1        0.0158
     16 C         140.6755  143.4550  158.2560 C.ar    1  UNL1        0.0892
     17 CL        140.1216  143.0269  156.9294 Cl      1  UNL1       -0.0793
     18 C         143.7122  132.1187  155.1460 C.ar    1  UNL1       -0.0227
     19 C         144.3041  132.5696  156.4484 C.ar    1  UNL1       -0.0030
     20 C         143.8959  133.8851  157.0423 C.ar    1  UNL1        0.0144
     21 C         142.8958  134.7498  156.3338 C.ar    1  UNL1        0.0516
     22 C         142.3038  134.2989  155.0315 C.ar    1  UNL1        0.0144
     23 C         142.7120  132.9833  154.4376 C.ar    1  UNL1       -0.0030
     24 C         144.8795  130.4739  155.8032 C.3     1  UNL1        0.0044
     25 C         144.1204  130.8031  154.5521 C.3     1  UNL1        0.0189
     26 C         143.3613  131.1324  153.3010 C.3     1  UNL1        0.0044
     27 C         144.5286  129.4876  153.9582 C.3     1  UNL1        0.0044
@<TRIPOS>BOND
     1    24    25    1
     2    25    26    1
     3    25    27    1
     4    25    18    1
     5    18    19   ar
     6    19    20   ar
     7    20    21   ar
     8    21     1    1
     9     1     2   am
    10     2     3    2
    11     2     4   am
    12     4     5    1
    13     5     6    1
    14     6     7    1
    15     7    11    1
    16    11    12   ar
    17    12    13   ar
    18    13    14   ar
    19    14    15   ar
    20    15    16   ar
    21    16    17    1
    22     7     8    1
    23     8     9    1
    24    21    22   ar
    25    22    23   ar
    26    23    18   ar
    27     9     4    1
    28    16    11   ar
    29     1    10    1
