@<TRIPOS>MOLECULE
*****
 40 44 0 0 0
SMALL
GASTEIGER

@<TRIPOS>ATOM
      1 C         138.6614  140.1170  158.8773 C.3     1  UNL1        0.1035
      2 C         140.0776  140.4627  159.2303 C.3     1  UNL1        0.0933
      3 N         139.8763  139.8878  160.6011 N.3     1  UNL1       -0.2711
      4 C         138.4599  139.5421  160.2481 C.3     1  UNL1        0.0933
      5 C         140.7353  139.7258  161.8200 C.3     1  UNL1        0.0578
      6 C         141.8585  138.7316  161.8192 C.3     1  UNL1        0.0187
      7 C         142.7176  138.5696  163.0382 C.3     1  UNL1        0.0325
      8 C         142.4534  139.4018  164.2578 C.3     1  UNL1        0.1071
      9 O         143.6264  138.5999  164.7386 O.3     1  UNL1       -0.3827
     10 C         141.3302  140.3960  164.2587 C.3     1  UNL1        0.0325
     11 C         140.4712  140.5580  163.0398 C.3     1  UNL1        0.0187
     12 H         143.9166  137.9981  164.0354 H       1  UNL1        0.2107
     13 C         142.5966  139.9556  165.6446 C.ar    1  UNL1        0.0047
     14 C         142.7595  141.4325  165.8493 C.ar    1  UNL1       -0.0022
     15 C         142.9027  141.9862  167.2360 C.ar    1  UNL1       -0.0014
     16 C         142.8830  141.0629  168.4179 C.ar    1  UNL1        0.0155
     17 C         142.7202  139.5859  168.2133 C.ar    1  UNL1        0.1344
     18 C         142.5770  139.0321  166.8266 C.ar    1  UNL1        0.0345
     19 O         142.7377  138.9264  169.5604 O.3     1  UNL1       -0.4754
     20 C         142.9114  139.9960  170.5977 C.3     1  UNL1        0.2102
     21 C         143.0012  141.3163  169.8916 C.3     1  UNL1        0.0767
     22 O         138.2419  142.8394  157.6887 O.2     1  UNL1       -0.2733
     23 C         137.5925  141.6401  157.0641 C.2     1  UNL1        0.2426
     24 N         137.8022  140.2789  157.6584 N.am    1  UNL1       -0.3018
     25 H         137.3760  139.4919  157.2484 H       1  UNL1        0.1495
     26 C         136.7334  141.8021  155.8452 C.3     1  UNL1        0.1759
     27 N         135.2391  141.7871  155.9734 N.am    1  UNL1       -0.2931
     28 C         134.4941  140.4865  155.9132 C.2     1  UNL1        0.2462
     29 O         135.2436  139.2009  155.7247 O.2     1  UNL1       -0.2701
     30 H         134.7471  142.6308  156.0972 H       1  UNL1        0.1502
     31 C         132.9997  140.4715  156.0414 C.ar    1  UNL1        0.0533
     32 C         132.1669  141.4106  155.2201 C.ar    1  UNL1        0.0045
     33 C         130.6725  141.3957  155.3484 C.ar    1  UNL1        0.0001
     34 C         130.0108  140.4416  156.2981 C.ar    1  UNL1        0.0039
     35 C         130.8435  139.5025  157.1194 C.ar    1  UNL1        0.0716
     36 C         132.3380  139.5175  156.9911 C.ar    1  UNL1        0.0084
     37 C         130.1819  138.5484  158.0691 C.3     1  UNL1        0.4186
     38 F         129.5202  137.5943  159.0188 F       1  UNL1       -0.1659
     39 F         131.5212  138.1882  158.6404 F       1  UNL1       -0.1659
     40 F         128.8425  138.9086  157.4978 F       1  UNL1       -0.1659
@<TRIPOS>BOND
     1    22    23    2
     2    23    26    1
     3    26    27    1
     4    27    28   am
     5    28    29    2
     6    28    31    1
     7    31    32   ar
     8    32    33   ar
     9    33    34   ar
    10    34    35   ar
    11    35    37    1
    12    37    38    1
    13    37    39    1
    14    37    40    1
    15    35    36   ar
    16    23    24   am
    17    24     1    1
    18     1     2    1
    19     2     3    1
    20     5     3    1
    21     5     6    1
    22     6     7    1
    23     7     8    1
    24     8     9    1
    25     8    13    1
    26    13    14   ar
    27    14    15   ar
    28    15    16   ar
    29    16    17   ar
    30    17    18   ar
    31    17    19    1
    32    19    20    1
    33    20    21    1
    34     8    10    1
    35    10    11    1
    36     3     4    1
    37    36    31   ar
    38     4     1    1
    39    11     5    1
    40    18    13   ar
    41    21    16    1
    42    27    30    1
    43    24    25    1
    44     9    12    1
@<TRIPOS>MOLECULE
*****
 40 44 0 0 0
SMALL
GASTEIGER

@<TRIPOS>ATOM
      1 C         143.6994  139.9747  158.9730 C.3     1  UNL1        0.1035
      2 C         143.5952  141.3474  159.5687 C.3     1  UNL1        0.0933
      3 N         143.6417  140.7535  160.9454 N.3     1  UNL1       -0.2711
      4 C         143.7459  139.3807  160.3497 C.3     1  UNL1        0.0933
      5 C         143.6008  141.3041  162.3400 C.3     1  UNL1        0.0578
      6 C         144.7703  142.0752  162.8764 C.3     1  UNL1        0.0187
      7 C         144.7295  142.6259  164.2711 C.3     1  UNL1        0.0325
      8 C         143.5192  142.4054  165.1293 C.3     1  UNL1        0.1071
      9 O         144.3711  143.1953  166.0783 O.3     1  UNL1       -0.3827
     10 C         142.3497  141.6343  164.5929 C.3     1  UNL1        0.0325
     11 C         142.3905  141.0837  163.1983 C.3     1  UNL1        0.0187
     12 H         145.2124  143.4171  165.6494 H       1  UNL1        0.2107
     13 C         142.6047  142.4593  166.3172 C.ar    1  UNL1        0.0047
     14 C         141.1649  142.8397  166.1386 C.ar    1  UNL1       -0.0022
     15 C         140.2504  142.8936  167.3264 C.ar    1  UNL1       -0.0014
     16 C         140.7759  142.5670  168.6928 C.ar    1  UNL1        0.0155
     17 C         142.2158  142.1865  168.8715 C.ar    1  UNL1        0.1344
     18 C         143.1302  142.1326  167.6837 C.ar    1  UNL1        0.0345
     19 O         142.4472  141.9191  170.3292 O.3     1  UNL1       -0.4754
     20 C         141.1503  142.1344  171.0514 C.3     1  UNL1        0.2102
     21 C         140.1173  142.5348  170.0401 C.3     1  UNL1        0.0767
     22 O         141.3319  140.3044  157.1601 O.2     1  UNL1       -0.2733
     23 C         142.5565  139.5888  156.6720 C.2     1  UNL1        0.2426
     24 N         143.7402  139.4240  157.5783 N.am    1  UNL1       -0.3018
     25 H         144.5440  138.9543  157.2579 H       1  UNL1        0.1495
     26 C         142.5974  139.0381  155.2772 C.3     1  UNL1        0.1759
     27 N         142.3559  137.5768  155.0405 N.am    1  UNL1       -0.2931
     28 C         143.4704  136.5915  155.2335 C.2     1  UNL1        0.2462
     29 O         144.8264  137.0677  155.6633 O.2     1  UNL1       -0.2701
     30 H         141.4660  137.2643  154.7585 H       1  UNL1        0.1502
     31 C         143.2289  135.1301  154.9968 C.ar    1  UNL1        0.0533
     32 C         142.4508  134.6836  153.7946 C.ar    1  UNL1        0.0045
     33 C         142.2093  133.2222  153.5579 C.ar    1  UNL1        0.0001
     34 C         142.7459  132.2073  154.5234 C.ar    1  UNL1        0.0039
     35 C         143.5239  132.6539  155.7256 C.ar    1  UNL1        0.0716
     36 C         143.7655  134.1153  155.9623 C.ar    1  UNL1        0.0084
     37 C         144.0605  131.6390  156.6910 C.3     1  UNL1        0.4186
     38 F         144.5971  130.6241  157.6566 F       1  UNL1       -0.1659
     39 F         142.6934  131.4847  157.2886 F       1  UNL1       -0.1659
     40 F         145.4276  131.7933  156.0934 F       1  UNL1       -0.1659
@<TRIPOS>BOND
     1    22    23    2
     2    23    26    1
     3    26    27    1
     4    27    28   am
     5    28    29    2
     6    28    31    1
     7    31    32   ar
     8    32    33   ar
     9    33    34   ar
    10    34    35   ar
    11    35    37    1
    12    37    38    1
    13    37    39    1
    14    37    40    1
    15    35    36   ar
    16    23    24   am
    17    24     1    1
    18     1     2    1
    19     2     3    1
    20     5     3    1
    21     5     6    1
    22     6     7    1
    23     7     8    1
    24     8     9    1
    25     8    13    1
    26    13    14   ar
    27    14    15   ar
    28    15    16   ar
    29    16    17   ar
    30    17    18   ar
    31    17    19    1
    32    19    20    1
    33    20    21    1
    34     8    10    1
    35    10    11    1
    36     3     4    1
    37    36    31   ar
    38     4     1    1
    39    11     5    1
    40    18    13   ar
    41    21    16    1
    42    27    30    1
    43    24    25    1
    44     9    12    1
@<TRIPOS>MOLECULE
*****
 40 44 0 0 0
SMALL
GASTEIGER

@<TRIPOS>ATOM
      1 C         139.2292  142.5020  158.9526 C.3     1  UNL1        0.1035
      2 C         140.1643  141.4462  159.4633 C.3     1  UNL1        0.0933
      3 N         140.3891  142.2486  160.7106 N.3     1  UNL1       -0.2711
      4 C         139.4540  143.3045  160.1999 C.3     1  UNL1        0.0933
      5 C         141.2093  142.0694  161.9536 C.3     1  UNL1        0.0578
      6 C         142.5628  142.7075  162.0575 C.3     1  UNL1        0.0187
      7 C         143.3830  142.5283  163.3006 C.3     1  UNL1        0.0325
      8 C         142.8496  141.7111  164.4397 C.3     1  UNL1        0.1071
      9 O         144.1782  142.1139  165.0078 O.3     1  UNL1       -0.3827
     10 C         141.4960  141.0730  164.3358 C.3     1  UNL1        0.0325
     11 C         140.6759  141.2522  163.0928 C.3     1  UNL1        0.0187
     12 H         144.6519  142.6633  164.3639 H       1  UNL1        0.2107
     13 C         142.7776  141.0337  165.7762 C.ar    1  UNL1        0.0047
     14 C         143.0833  139.5699  165.8925 C.ar    1  UNL1       -0.0022
     15 C         143.0113  138.8925  167.2289 C.ar    1  UNL1       -0.0014
     16 C         142.6336  139.6791  168.4490 C.ar    1  UNL1        0.0155
     17 C         142.3279  141.1430  168.3327 C.ar    1  UNL1        0.1344
     18 C         142.3999  141.8203  166.9963 C.ar    1  UNL1        0.0345
     19 O         141.9865  141.6554  169.7005 O.3     1  UNL1       -0.4754
     20 C         142.0812  140.5081  170.6622 C.3     1  UNL1        0.2102
     21 C         142.4812  139.2867  169.8888 C.3     1  UNL1        0.0767
     22 O         137.5209  140.2510  157.9451 O.2     1  UNL1       -0.2733
     23 C         137.5549  141.5558  157.2058 C.2     1  UNL1        0.2426
     24 N         138.4090  142.6812  157.7095 N.am    1  UNL1       -0.3018
     25 H         138.4312  143.5376  157.2243 H       1  UNL1        0.1495
     26 C         136.7347  141.7350  155.9627 C.3     1  UNL1        0.1759
     27 N         135.2371  141.7390  156.0464 N.am    1  UNL1       -0.2931
     28 C         134.4733  140.4582  155.8839 C.2     1  UNL1        0.2462
     29 O         135.2074  139.1734  155.6377 O.2     1  UNL1       -0.2701
     30 H         134.7554  142.5823  156.2080 H       1  UNL1        0.1502
     31 C         132.9757  140.4623  155.9675 C.ar    1  UNL1        0.0533
     32 C         132.1890  141.5392  155.2809 C.ar    1  UNL1        0.0045
     33 C         130.6914  141.5433  155.3645 C.ar    1  UNL1        0.0001
     34 C         129.9803  140.4704  156.1349 C.ar    1  UNL1        0.0039
     35 C         130.7670  139.3935  156.8216 C.ar    1  UNL1        0.0716
     36 C         132.2647  139.3895  156.7379 C.ar    1  UNL1        0.0084
     37 C         130.0561  138.3207  157.5920 C.3     1  UNL1        0.4186
     38 F         129.3450  137.2478  158.3623 F       1  UNL1       -0.1659
     39 F         130.3056  137.3524  156.4738 F       1  UNL1       -0.1659
     40 F         129.8065  139.2889  158.7101 F       1  UNL1       -0.1659
@<TRIPOS>BOND
     1    22    23    2
     2    23    26    1
     3    26    27    1
     4    27    28   am
     5    28    29    2
     6    28    31    1
     7    31    32   ar
     8    32    33   ar
     9    33    34   ar
    10    34    35   ar
    11    35    37    1
    12    37    38    1
    13    37    39    1
    14    37    40    1
    15    35    36   ar
    16    23    24   am
    17    24     1    1
    18     1     2    1
    19     2     3    1
    20     5     3    1
    21     5     6    1
    22     6     7    1
    23     7     8    1
    24     8     9    1
    25     8    13    1
    26    13    14   ar
    27    14    15   ar
    28    15    16   ar
    29    16    17   ar
    30    17    18   ar
    31    17    19    1
    32    19    20    1
    33    20    21    1
    34     8    10    1
    35    10    11    1
    36     3     4    1
    37    36    31   ar
    38     4     1    1
    39    11     5    1
    40    18    13   ar
    41    21    16    1
    42    27    30    1
    43    24    25    1
    44     9    12    1
@<TRIPOS>MOLECULE
*****
 40 44 0 0 0
SMALL
GASTEIGER

@<TRIPOS>ATOM
      1 C         141.2335  138.2776  159.3392 C.3     1  UNL1        0.1035
      2 C         140.0732  138.9833  159.9761 C.3     1  UNL1        0.0933
      3 N         140.6435  138.6958  161.3334 N.3     1  UNL1       -0.2711
      4 C         141.8038  137.9901  160.6964 C.3     1  UNL1        0.0933
      5 C         140.2264  138.9915  162.7436 C.3     1  UNL1        0.0578
      6 C         139.1572  138.1676  163.3978 C.3     1  UNL1        0.0187
      7 C         138.7400  138.4634  164.8080 C.3     1  UNL1        0.0325
      8 C         139.3920  139.5830  165.5638 C.3     1  UNL1        0.1071
      9 O         138.4337  139.0882  166.6063 O.3     1  UNL1       -0.3827
     10 C         140.4612  140.4069  164.9096 C.3     1  UNL1        0.0325
     11 C         140.8784  140.1112  163.4995 C.3     1  UNL1        0.0187
     12 H         137.9265  138.3416  166.2510 H       1  UNL1        0.2107
     13 C         139.7113  140.5308  166.6818 C.ar    1  UNL1        0.0047
     14 C         140.1009  141.9467  166.3765 C.ar    1  UNL1       -0.0022
     15 C         140.4201  142.8945  167.4944 C.ar    1  UNL1       -0.0014
     16 C         140.3496  142.4263  168.9177 C.ar    1  UNL1        0.0155
     17 C         139.9599  141.0104  169.2231 C.ar    1  UNL1        0.1344
     18 C         139.6407  140.0626  168.1052 C.ar    1  UNL1        0.0345
     19 O         139.9760  140.8362  170.7129 O.3     1  UNL1       -0.4754
     20 C         140.3757  142.1445  171.3282 C.3     1  UNL1        0.2102
     21 C         140.6066  143.1273  170.2187 C.3     1  UNL1        0.0767
     22 O         143.8323  139.3463  158.2883 O.2     1  UNL1       -0.2733
     23 C         142.9501  138.5162  157.4036 C.2     1  UNL1        0.2426
     24 N         141.6507  137.9819  157.9290 N.am    1  UNL1       -0.3018
     25 H         141.0717  137.4370  157.3483 H       1  UNL1        0.1495
     26 C         143.3673  138.2204  155.9934 C.3     1  UNL1        0.1759
     27 N         143.5577  136.8004  155.5498 N.am    1  UNL1       -0.2931
     28 C         142.3757  135.9854  155.1151 C.2     1  UNL1        0.2462
     29 O         141.0033  136.5907  155.1241 O.2     1  UNL1       -0.2701
     30 H         144.4585  136.4031  155.5439 H       1  UNL1        0.1502
     31 C         142.5662  134.5653  154.6714 C.ar    1  UNL1        0.0533
     32 C         142.0313  134.1159  153.3440 C.ar    1  UNL1        0.0045
     33 C         142.2218  132.6958  152.9004 C.ar    1  UNL1        0.0001
     34 C         142.9473  131.7249  153.7842 C.ar    1  UNL1        0.0039
     35 C         143.4822  132.1742  155.1116 C.ar    1  UNL1        0.0716
     36 C         143.2917  133.5944  155.5552 C.ar    1  UNL1        0.0084
     37 C         144.2077  131.2034  155.9954 C.3     1  UNL1        0.4186
     38 F         144.9332  130.2325  156.8792 F       1  UNL1       -0.1659
     39 F         145.3324  132.1838  156.1493 F       1  UNL1       -0.1659
     40 F         143.0830  130.2229  155.8414 F       1  UNL1       -0.1659
@<TRIPOS>BOND
     1    22    23    2
     2    23    26    1
     3    26    27    1
     4    27    28   am
     5    28    29    2
     6    28    31    1
     7    31    32   ar
     8    32    33   ar
     9    33    34   ar
    10    34    35   ar
    11    35    37    1
    12    37    38    1
    13    37    39    1
    14    37    40    1
    15    35    36   ar
    16    23    24   am
    17    24     1    1
    18     1     2    1
    19     2     3    1
    20     5     3    1
    21     5     6    1
    22     6     7    1
    23     7     8    1
    24     8     9    1
    25     8    13    1
    26    13    14   ar
    27    14    15   ar
    28    15    16   ar
    29    16    17   ar
    30    17    18   ar
    31    17    19    1
    32    19    20    1
    33    20    21    1
    34     8    10    1
    35    10    11    1
    36     3     4    1
    37    36    31   ar
    38     4     1    1
    39    11     5    1
    40    18    13   ar
    41    21    16    1
    42    27    30    1
    43    24    25    1
    44     9    12    1
@<TRIPOS>MOLECULE
*****
 40 44 0 0 0
SMALL
GASTEIGER

@<TRIPOS>ATOM
      1 C         142.9093  138.7374  159.1779 C.3     1  UNL1        0.1035
      2 C         143.5348  138.4658  160.5138 C.3     1  UNL1        0.0933
      3 N         143.0183  139.7790  161.0226 N.3     1  UNL1       -0.2711
      4 C         142.3928  140.0507  159.6865 C.3     1  UNL1        0.0933
      5 C         143.0954  140.5156  162.3270 C.3     1  UNL1        0.0578
      6 C         144.2994  141.3512  162.6464 C.3     1  UNL1        0.0187
      7 C         144.3765  142.0878  163.9510 C.3     1  UNL1        0.0325
      8 C         143.2496  141.9886  164.9359 C.3     1  UNL1        0.1071
      9 O         144.1737  142.8997  165.6882 O.3     1  UNL1       -0.3827
     10 C         142.0455  141.1529  164.6165 C.3     1  UNL1        0.0325
     11 C         141.9684  140.4164  163.3121 C.3     1  UNL1        0.0187
     12 H         144.9712  143.0595  165.1596 H       1  UNL1        0.2107
     13 C         142.4435  142.2059  166.1822 C.ar    1  UNL1        0.0047
     14 C         141.0604  142.7789  166.0905 C.ar    1  UNL1       -0.0022
     15 C         140.2544  142.9962  167.3367 C.ar    1  UNL1       -0.0014
     16 C         140.8316  142.6405  168.6747 C.ar    1  UNL1        0.0155
     17 C         142.2148  142.0674  168.7665 C.ar    1  UNL1        0.1344
     18 C         143.0208  141.8501  167.5203 C.ar    1  UNL1        0.0345
     19 O         142.5166  141.8142  170.2138 O.3     1  UNL1       -0.4754
     20 C         141.3199  142.2309  171.0166 C.3     1  UNL1        0.2102
     21 C         140.2786  142.7415  170.0654 C.3     1  UNL1        0.0767
     22 O         140.2375  138.0563  157.9954 O.2     1  UNL1       -0.2733
     23 C         141.4963  137.6604  157.2822 C.2     1  UNL1        0.2426
     24 N         142.8321  138.0009  157.8733 N.am    1  UNL1       -0.3018
     25 H         143.6583  137.7410  157.4052 H       1  UNL1        0.1495
     26 C         141.4192  136.9238  155.9777 C.3     1  UNL1        0.1759
     27 N         141.3821  135.4245  155.9640 N.am    1  UNL1       -0.2931
     28 C         142.6359  134.6407  156.2167 C.2     1  UNL1        0.2462
     29 O         143.9269  135.3566  156.4831 O.2     1  UNL1       -0.2701
     30 H         140.5348  134.9546  155.7891 H       1  UNL1        0.1502
     31 C         142.5987  133.1413  156.2030 C.ar    1  UNL1        0.0533
     32 C         141.6518  132.4228  155.2880 C.ar    1  UNL1        0.0045
     33 C         141.6146  130.9234  155.2743 C.ar    1  UNL1        0.0001
     34 C         142.5244  130.1423  156.1756 C.ar    1  UNL1        0.0039
     35 C         143.4713  130.8608  157.0906 C.ar    1  UNL1        0.0716
     36 C         143.5085  132.3603  157.1042 C.ar    1  UNL1        0.0084
     37 C         144.3811  130.0798  157.9918 C.3     1  UNL1        0.4186
     38 F         145.2908  129.2987  158.8931 F       1  UNL1       -0.1659
     39 F         143.6689  128.8147  157.6144 F       1  UNL1       -0.1659
     40 F         145.0932  131.3448  158.3693 F       1  UNL1       -0.1659
@<TRIPOS>BOND
     1    22    23    2
     2    23    26    1
     3    26    27    1
     4    27    28   am
     5    28    29    2
     6    28    31    1
     7    31    32   ar
     8    32    33   ar
     9    33    34   ar
    10    34    35   ar
    11    35    37    1
    12    37    38    1
    13    37    39    1
    14    37    40    1
    15    35    36   ar
    16    23    24   am
    17    24     1    1
    18     1     2    1
    19     2     3    1
    20     5     3    1
    21     5     6    1
    22     6     7    1
    23     7     8    1
    24     8     9    1
    25     8    13    1
    26    13    14   ar
    27    14    15   ar
    28    15    16   ar
    29    16    17   ar
    30    17    18   ar
    31    17    19    1
    32    19    20    1
    33    20    21    1
    34     8    10    1
    35    10    11    1
    36     3     4    1
    37    36    31   ar
    38     4     1    1
    39    11     5    1
    40    18    13   ar
    41    21    16    1
    42    27    30    1
    43    24    25    1
    44     9    12    1
@<TRIPOS>MOLECULE
*****
 40 44 0 0 0
SMALL
GASTEIGER

@<TRIPOS>ATOM
      1 C         141.3615  138.8203  159.1239 C.3     1  UNL1        0.1035
      2 C         142.1174  139.9888  159.6836 C.3     1  UNL1        0.0933
      3 N         141.2381  139.9754  160.8989 N.3     1  UNL1       -0.2711
      4 C         140.4822  138.8069  160.3391 C.3     1  UNL1        0.0933
      5 C         141.1509  140.7921  162.1540 C.3     1  UNL1        0.0578
      6 C         140.4850  142.1360  162.1295 C.3     1  UNL1        0.0187
      7 C         140.3978  142.9527  163.3847 C.3     1  UNL1        0.0325
      8 C         140.9765  142.4255  164.6642 C.3     1  UNL1        0.1071
      9 O         140.4478  143.7456  165.1418 O.3     1  UNL1       -0.3827
     10 C         141.6424  141.0817  164.6887 C.3     1  UNL1        0.0325
     11 C         141.7296  140.2649  163.4336 C.3     1  UNL1        0.0187
     12 H         140.0324  144.2145  164.4012 H       1  UNL1        0.2107
     13 C         141.3716  142.3568  166.1097 C.ar    1  UNL1        0.0047
     14 C         142.8222  142.3345  166.4904 C.ar    1  UNL1       -0.0022
     15 C         143.2173  142.2657  167.9358 C.ar    1  UNL1       -0.0014
     16 C         142.1617  142.2194  169.0005 C.ar    1  UNL1        0.0155
     17 C         140.7109  142.2417  168.6197 C.ar    1  UNL1        0.1344
     18 C         140.3159  142.3105  167.1743 C.ar    1  UNL1        0.0345
     19 O         139.8999  142.1855  169.8803 O.3     1  UNL1       -0.4754
     20 C         140.8494  142.1283  171.0401 C.3     1  UNL1        0.2102
     21 C         142.2472  142.1493  170.4964 C.3     1  UNL1        0.0767
     22 O         139.0668  138.7900  157.1915 O.2     1  UNL1       -0.2733
     23 C         140.3014  137.9884  156.9026 C.2     1  UNL1        0.2426
     24 N         141.4486  138.0035  157.8687 N.am    1  UNL1       -0.3018
     25 H         142.2589  137.4774  157.6791 H       1  UNL1        0.1495
     26 C         140.3885  137.1716  155.6474 C.3     1  UNL1        0.1759
     27 N         140.5965  135.6885  155.7307 N.am    1  UNL1       -0.2931
     28 C         141.9815  135.1326  155.8815 C.2     1  UNL1        0.2462
     29 O         143.1586  136.0599  155.9491 O.2     1  UNL1       -0.2701
     30 H         139.8239  135.0799  155.6863 H       1  UNL1        0.1502
     31 C         142.1894  133.6494  155.9647 C.ar    1  UNL1        0.0533
     32 C         141.3056  132.7231  155.1831 C.ar    1  UNL1        0.0045
     33 C         141.5134  131.2400  155.2663 C.ar    1  UNL1        0.0001
     34 C         142.6052  130.6830  156.1312 C.ar    1  UNL1        0.0039
     35 C         143.4890  131.6093  156.9128 C.ar    1  UNL1        0.0716
     36 C         143.2811  133.0925  156.8295 C.ar    1  UNL1        0.0084
     37 C         144.5807  131.0524  157.7776 C.3     1  UNL1        0.4186
     38 F         145.6725  130.4954  158.6425 F       1  UNL1       -0.1659
     39 F         145.4753  132.1889  157.3801 F       1  UNL1       -0.1659
     40 F         143.6861  129.9159  158.1751 F       1  UNL1       -0.1659
@<TRIPOS>BOND
     1    22    23    2
     2    23    26    1
     3    26    27    1
     4    27    28   am
     5    28    29    2
     6    28    31    1
     7    31    32   ar
     8    32    33   ar
     9    33    34   ar
    10    34    35   ar
    11    35    37    1
    12    37    38    1
    13    37    39    1
    14    37    40    1
    15    35    36   ar
    16    23    24   am
    17    24     1    1
    18     1     2    1
    19     2     3    1
    20     5     3    1
    21     5     6    1
    22     6     7    1
    23     7     8    1
    24     8     9    1
    25     8    13    1
    26    13    14   ar
    27    14    15   ar
    28    15    16   ar
    29    16    17   ar
    30    17    18   ar
    31    17    19    1
    32    19    20    1
    33    20    21    1
    34     8    10    1
    35    10    11    1
    36     3     4    1
    37    36    31   ar
    38     4     1    1
    39    11     5    1
    40    18    13   ar
    41    21    16    1
    42    27    30    1
    43    24    25    1
    44     9    12    1
@<TRIPOS>MOLECULE
*****
 40 44 0 0 0
SMALL
GASTEIGER

@<TRIPOS>ATOM
      1 C         142.6779  138.1452  159.2048 C.3     1  UNL1        0.1035
      2 C         142.6205  139.5701  159.6699 C.3     1  UNL1        0.0933
      3 N         142.7438  139.1107  161.0925 N.3     1  UNL1       -0.2711
      4 C         142.8012  137.6857  160.6275 C.3     1  UNL1        0.0933
      5 C         142.7904  139.7935  162.4273 C.3     1  UNL1        0.0578
      6 C         143.9830  140.6211  162.8051 C.3     1  UNL1        0.0187
      7 C         144.0296  141.3039  164.1400 C.3     1  UNL1        0.0325
      8 C         142.8836  141.1590  165.0968 C.3     1  UNL1        0.1071
      9 O         143.7872  142.0429  165.9044 O.3     1  UNL1       -0.3827
     10 C         141.6910  140.3313  164.7190 C.3     1  UNL1        0.0325
     11 C         141.6444  139.6486  163.3842 C.3     1  UNL1        0.0187
     12 H         144.5943  142.2281  165.3993 H       1  UNL1        0.2107
     13 C         142.0513  141.3211  166.3343 C.ar    1  UNL1        0.0047
     14 C         141.2980  142.5966  166.5697 C.ar    1  UNL1       -0.0022
     15 C         140.4658  142.7587  167.8071 C.ar    1  UNL1       -0.0014
     16 C         140.3870  141.6452  168.8091 C.ar    1  UNL1        0.0155
     17 C         141.1404  140.3697  168.5737 C.ar    1  UNL1        0.1344
     18 C         141.9726  140.2076  167.3363 C.ar    1  UNL1        0.0345
     19 O         140.8730  139.4531  169.7306 O.3     1  UNL1       -0.4754
     20 C         139.9543  140.1622  170.6810 C.3     1  UNL1        0.2102
     21 C         139.6540  141.5170  170.1115 C.3     1  UNL1        0.0767
     22 O         140.0718  137.8893  157.7409 O.2     1  UNL1       -0.2733
     23 C         141.3283  137.3344  157.1381 C.2     1  UNL1        0.2426
     24 N         142.6313  137.4623  157.8700 N.am    1  UNL1       -0.3018
     25 H         143.4560  137.0981  157.4744 H       1  UNL1        0.1495
     26 C         141.2817  136.6516  155.8033 C.3     1  UNL1        0.1759
     27 N         141.4269  135.1612  155.7178 N.am    1  UNL1       -0.2931
     28 C         142.7900  134.5366  155.7608 C.2     1  UNL1        0.2462
     29 O         144.0080  135.4026  155.8894 O.2     1  UNL1       -0.2701
     30 H         140.6274  134.5928  155.6334 H       1  UNL1        0.1502
     31 C         142.9351  133.0461  155.6753 C.ar    1  UNL1        0.0533
     32 C         144.2740  132.4086  155.9010 C.ar    1  UNL1        0.0045
     33 C         144.4190  130.9181  155.8155 C.ar    1  UNL1        0.0001
     34 C         143.2251  130.0650  155.5043 C.ar    1  UNL1        0.0039
     35 C         141.8862  130.7025  155.2786 C.ar    1  UNL1        0.0716
     36 C         141.7412  132.1931  155.3641 C.ar    1  UNL1        0.0084
     37 C         140.6922  129.8495  154.9674 C.3     1  UNL1        0.4186
     38 F         139.4982  128.9964  154.6561 F       1  UNL1       -0.1659
     39 F         139.8201  131.0699  154.9680 F       1  UNL1       -0.1659
     40 F         141.5644  128.6291  154.9667 F       1  UNL1       -0.1659
@<TRIPOS>BOND
     1    22    23    2
     2    23    26    1
     3    26    27    1
     4    27    28   am
     5    28    29    2
     6    28    31    1
     7    31    32   ar
     8    32    33   ar
     9    33    34   ar
    10    34    35   ar
    11    35    37    1
    12    37    38    1
    13    37    39    1
    14    37    40    1
    15    35    36   ar
    16    23    24   am
    17    24     1    1
    18     1     2    1
    19     2     3    1
    20     5     3    1
    21     5     6    1
    22     6     7    1
    23     7     8    1
    24     8     9    1
    25     8    13    1
    26    13    14   ar
    27    14    15   ar
    28    15    16   ar
    29    16    17   ar
    30    17    18   ar
    31    17    19    1
    32    19    20    1
    33    20    21    1
    34     8    10    1
    35    10    11    1
    36     3     4    1
    37    36    31   ar
    38     4     1    1
    39    11     5    1
    40    18    13   ar
    41    21    16    1
    42    27    30    1
    43    24    25    1
    44     9    12    1
@<TRIPOS>MOLECULE
*****
 40 44 0 0 0
SMALL
GASTEIGER

@<TRIPOS>ATOM
      1 C         141.7263  142.2674  160.7361 C.3     1  UNL1        0.1035
      2 C         140.4361  142.9427  160.3765 C.3     1  UNL1        0.0933
      3 N         141.0365  143.3993  159.0799 N.3     1  UNL1       -0.2711
      4 C         142.3268  142.7240  159.4396 C.3     1  UNL1        0.0933
      5 C         140.5488  144.1997  157.9088 C.3     1  UNL1        0.0578
      6 C         139.8171  143.5209  156.7890 C.3     1  UNL1        0.0187
      7 C         139.3294  144.3213  155.6179 C.3     1  UNL1        0.0325
      8 C         139.5735  145.8004  155.5665 C.3     1  UNL1        0.1071
      9 O         138.8377  145.6127  154.2729 O.3     1  UNL1       -0.3827
     10 C         140.3052  146.4792  156.6863 C.3     1  UNL1        0.0325
     11 C         140.7929  145.6788  157.8574 C.3     1  UNL1        0.0187
     12 H         138.6071  144.6767  154.1649 H       1  UNL1        0.2107
     13 C         139.5620  147.2144  155.0659 C.ar    1  UNL1        0.0047
     14 C         140.3353  147.5801  153.8338 C.ar    1  UNL1       -0.0022
     15 C         140.3239  148.9940  153.3332 C.ar    1  UNL1       -0.0014
     16 C         139.5390  150.0423  154.0647 C.ar    1  UNL1        0.0155
     17 C         138.7656  149.6766  155.2968 C.ar    1  UNL1        0.1344
     18 C         138.7771  148.2627  155.7975 C.ar    1  UNL1        0.0345
     19 O         138.0894  150.9156  155.8044 O.3     1  UNL1       -0.4754
     20 C         138.4448  152.0470  154.8859 C.3     1  UNL1        0.2102
     21 C         139.3408  151.5073  153.8107 C.3     1  UNL1        0.0767
     22 O         141.0298  139.3578  160.9590 O.2     1  UNL1       -0.2733
     23 C         141.8658  140.0123  162.0187 C.2     1  UNL1        0.2426
     24 N         142.2140  141.4670  161.9073 N.am    1  UNL1       -0.3018
     25 H         142.7627  141.8965  162.6028 H       1  UNL1        0.1495
     26 C         142.3536  139.2119  163.1898 C.3     1  UNL1        0.1759
     27 N         141.8002  139.4728  164.5593 N.am    1  UNL1       -0.2931
     28 C         142.3977  140.5485  165.4173 C.2     1  UNL1        0.2462
     29 O         143.5485  141.3631  164.9056 O.2     1  UNL1       -0.2701
     30 H         141.0448  138.9381  164.8950 H       1  UNL1        0.1502
     31 C         141.8442  140.8094  166.7868 C.ar    1  UNL1        0.0533
     32 C         140.5549  140.1696  167.2092 C.ar    1  UNL1        0.0045
     33 C         140.0015  140.4304  168.5787 C.ar    1  UNL1        0.0001
     34 C         140.7373  141.3312  169.5259 C.ar    1  UNL1        0.0039
     35 C         142.0266  141.9710  169.1035 C.ar    1  UNL1        0.0716
     36 C         142.5801  141.7101  167.7339 C.ar    1  UNL1        0.0084
     37 C         142.7625  142.8718  170.0507 C.3     1  UNL1        0.4186
     38 F         143.4984  143.7725  170.9979 F       1  UNL1       -0.1659
     39 F         143.9494  141.9561  169.9994 F       1  UNL1       -0.1659
     40 F         141.5756  143.7875  170.1019 F       1  UNL1       -0.1659
@<TRIPOS>BOND
     1    22    23    2
     2    23    26    1
     3    26    27    1
     4    27    28   am
     5    28    29    2
     6    28    31    1
     7    31    32   ar
     8    32    33   ar
     9    33    34   ar
    10    34    35   ar
    11    35    37    1
    12    37    38    1
    13    37    39    1
    14    37    40    1
    15    35    36   ar
    16    23    24   am
    17    24     1    1
    18     1     2    1
    19     2     3    1
    20     5     3    1
    21     5     6    1
    22     6     7    1
    23     7     8    1
    24     8     9    1
    25     8    13    1
    26    13    14   ar
    27    14    15   ar
    28    15    16   ar
    29    16    17   ar
    30    17    18   ar
    31    17    19    1
    32    19    20    1
    33    20    21    1
    34     8    10    1
    35    10    11    1
    36     3     4    1
    37    36    31   ar
    38     4     1    1
    39    11     5    1
    40    18    13   ar
    41    21    16    1
    42    27    30    1
    43    24    25    1
    44     9    12    1
@<TRIPOS>MOLECULE
*****
 40 44 0 0 0
SMALL
GASTEIGER

@<TRIPOS>ATOM
      1 C         138.5701  141.8085  159.0676 C.3     1  UNL1        0.1035
      2 C         139.8517  142.2881  159.6819 C.3     1  UNL1        0.0933
      3 N         139.7431  141.2270  160.7367 N.3     1  UNL1       -0.2711
      4 C         138.4614  140.7475  160.1223 C.3     1  UNL1        0.0933
      5 C         140.5725  140.8159  161.9170 C.3     1  UNL1        0.0578
      6 C         141.5272  139.6650  161.7982 C.3     1  UNL1        0.0187
      7 C         142.3567  139.2538  162.9786 C.3     1  UNL1        0.0325
      8 C         142.2313  139.9935  164.2774 C.3     1  UNL1        0.1071
      9 O         143.2675  138.9769  164.6555 O.3     1  UNL1       -0.3827
     10 C         141.2766  141.1444  164.3961 C.3     1  UNL1        0.0325
     11 C         140.4472  141.5555  163.2159 C.3     1  UNL1        0.0187
     12 H         143.4570  138.4092  163.8922 H       1  UNL1        0.2107
     13 C         142.4659  140.3802  165.7077 C.ar    1  UNL1        0.0047
     14 C         142.7111  141.8159  166.0659 C.ar    1  UNL1       -0.0022
     15 C         142.9457  142.2025  167.4961 C.ar    1  UNL1       -0.0014
     16 C         142.9350  141.1534  168.5681 C.ar    1  UNL1        0.0155
     17 C         142.6897  139.7176  168.2099 C.ar    1  UNL1        0.1344
     18 C         142.4551  139.3309  166.7797 C.ar    1  UNL1        0.0345
     19 O         142.7368  138.9101  169.4731 O.3     1  UNL1       -0.4754
     20 C         143.0112  139.8468  170.6120 C.3     1  UNL1        0.2102
     21 C         143.1337  141.2333  170.0527 C.3     1  UNL1        0.0767
     22 O         138.0084  139.8435  156.8714 O.2     1  UNL1       -0.2733
     23 C         137.4598  141.2372  156.7893 C.2     1  UNL1        0.2426
     24 N         137.7407  142.2197  157.8873 N.am    1  UNL1       -0.3018
     25 H         137.3806  143.1344  157.8333 H       1  UNL1        0.1495
     26 C         136.6303  141.6483  155.6090 C.3     1  UNL1        0.1759
     27 N         135.1391  141.7455  155.7376 N.am    1  UNL1       -0.2931
     28 C         134.3058  140.4986  155.7656 C.2     1  UNL1        0.2462
     29 O         134.9639  139.1544  155.6649 O.2     1  UNL1       -0.2701
     30 H         134.7072  142.6278  155.8037 H       1  UNL1        0.1502
     31 C         132.8145  140.5959  155.8942 C.ar    1  UNL1        0.0533
     32 C         132.0808  139.6791  156.8276 C.ar    1  UNL1        0.0045
     33 C         130.5895  139.7764  156.9563 C.ar    1  UNL1        0.0001
     34 C         129.8319  140.7905  156.1514 C.ar    1  UNL1        0.0039
     35 C         130.5656  141.7073  155.2180 C.ar    1  UNL1        0.0716
     36 C         132.0570  141.6099  155.0894 C.ar    1  UNL1        0.0084
     37 C         129.8080  142.7213  154.4132 C.3     1  UNL1        0.4186
     38 F         129.0504  143.7354  153.6083 F       1  UNL1       -0.1659
     39 F         130.0100  141.8928  153.1792 F       1  UNL1       -0.1659
     40 F         129.6061  143.5498  155.6472 F       1  UNL1       -0.1659
@<TRIPOS>BOND
     1    22    23    2
     2    23    26    1
     3    26    27    1
     4    27    28   am
     5    28    29    2
     6    28    31    1
     7    31    32   ar
     8    32    33   ar
     9    33    34   ar
    10    34    35   ar
    11    35    37    1
    12    37    38    1
    13    37    39    1
    14    37    40    1
    15    35    36   ar
    16    23    24   am
    17    24     1    1
    18     1     2    1
    19     2     3    1
    20     5     3    1
    21     5     6    1
    22     6     7    1
    23     7     8    1
    24     8     9    1
    25     8    13    1
    26    13    14   ar
    27    14    15   ar
    28    15    16   ar
    29    16    17   ar
    30    17    18   ar
    31    17    19    1
    32    19    20    1
    33    20    21    1
    34     8    10    1
    35    10    11    1
    36     3     4    1
    37    36    31   ar
    38     4     1    1
    39    11     5    1
    40    18    13   ar
    41    21    16    1
    42    27    30    1
    43    24    25    1
    44     9    12    1
