@<TRIPOS>MOLECULE
*****
 42 46 0 0 0
SMALL
GASTEIGER

@<TRIPOS>ATOM
      1 C         142.8473  141.1723  166.6229 C.ar    1  UNL1        0.0203
      2 C         143.4023  142.5645  166.6833 C.ar    1  UNL1        0.0310
      3 C         144.0384  143.1717  165.4681 C.ar    1  UNL1        0.1414
      4 F         144.5934  144.5639  165.5285 F       1  UNL1       -0.2041
      5 C         144.1196  142.3866  164.1925 C.ar    1  UNL1        0.0440
      6 C         143.5646  140.9943  164.1322 C.ar    1  UNL1        0.0488
      7 C         142.9285  140.3872  165.3474 C.ar    1  UNL1       -0.0067
      8 C         142.3735  138.9949  165.2871 C.3     1  UNL1        0.0324
      9 C         140.7200  140.5944  167.9980 C.ar    1  UNL1        0.1870
     10 C         140.0839  139.9873  169.2132 C.ar    1  UNL1        0.1629
     11 N         138.5927  140.0166  169.3730 N.pl3   1  UNL1       -0.3401
     12 N         140.9390  139.3509  170.2686 N.ar    1  UNL1       -0.2063
     13 C         142.4301  139.3217  170.1088 C.ar    1  UNL1        0.2002
     14 N         143.0662  139.9288  168.8936 N.ar    1  UNL1       -0.2208
     15 C         142.2111  140.5652  167.8382 C.ar    1  UNL1        0.1194
     16 H         138.0315  140.4343  168.6804 H       1  UNL1        0.1438
     17 H         138.1752  139.6181  170.1706 H       1  UNL1        0.1438
     18 O         139.8649  141.2308  166.9426 O.3     1  UNL1       -0.4693
     19 C         139.0946  140.3727  165.9834 C.3     1  UNL1        0.2252
     20 C         138.4724  138.7980  163.1936 C.2     1  UNL1        0.2492
     21 O         139.0622  137.9302  164.2657 O.2     1  UNL1       -0.2699
     22 N         138.2213  140.2526  163.4599 N.am    1  UNL1       -0.2740
     23 C         137.6400  141.2388  162.4905 C.3     1  UNL1        0.0938
     24 C         137.5668  142.5722  163.1737 C.3     1  UNL1        0.0233
     25 C         138.1027  142.4101  164.5654 C.3     1  UNL1        0.0254
     26 C         138.5072  140.9764  164.7422 C.3     1  UNL1        0.1192
     27 C         139.1132  138.3099  160.7236 C.2     1  UNL1        0.0048
     28 C         138.1339  138.2110  161.8555 C.2     1  UNL1        0.0579
     29 N         143.6458  140.2092  162.8567 N.am    1  UNL1       -0.2805
     30 C         142.5655  140.3417  161.8245 C.2     1  UNL1        0.2517
     31 O         141.4041  141.2592  162.0678 O.2     1  UNL1       -0.2697
     32 H         144.4080  139.6070  162.6970 H       1  UNL1        0.1552
     33 C         142.6466  139.5565  160.5489 C.ar    1  UNL1        0.0810
     34 C         142.6576  140.2691  159.2290 C.ar    1  UNL1        0.0065
     35 C         142.7387  139.4840  157.9535 C.ar    1  UNL1       -0.0040
     36 C         142.8088  137.9863  157.9979 C.ar    1  UNL1       -0.0203
     37 C         142.7979  137.2737  159.3177 C.ar    1  UNL1        0.0255
     38 C         142.7168  138.0588  160.5932 C.ar    1  UNL1        0.1441
     39 F         142.7058  137.3462  161.9132 F       1  UNL1       -0.2040
     40 C         142.8899  137.2011  156.7223 C.3     1  UNL1        0.0224
     41 C         143.7088  136.5250  155.6629 C.3     1  UNL1        0.0047
     42 C         142.2116  136.5174  155.5724 C.3     1  UNL1        0.0047
@<TRIPOS>BOND
     1    27    28    2
     2    28    20    1
     3    20    21    2
     4    20    22   am
     5    22    23    1
     6    23    24    1
     7    24    25    1
     8    25    26    1
     9    26    19    1
    10    19    18    1
    11    18     9    1
    12     9    10   ar
    13    10    11    1
    14    10    12   ar
    15    12    13   ar
    16    13    14   ar
    17    14    15   ar
    18    15     1    1
    19     1     2   ar
    20     2     3   ar
    21     3     4    1
    22     3     5   ar
    23     5     6   ar
    24     6    29    1
    25    29    30   am
    26    30    31    2
    27    30    33    1
    28    33    34   ar
    29    34    35   ar
    30    35    36   ar
    31    36    40    1
    32    40    41    1
    33    41    42    1
    34    36    37   ar
    35    37    38   ar
    36    38    39    1
    37     6     7   ar
    38     7     8    1
    39    26    22    1
    40    15     9   ar
    41     7     1   ar
    42    38    33   ar
    43    42    40    1
    44    11    16    1
    45    11    17    1
    46    29    32    1
@<TRIPOS>MOLECULE
*****
 42 46 0 0 0
SMALL
GASTEIGER

@<TRIPOS>ATOM
      1 C         141.1073  142.6311  166.5233 C.ar    1  UNL1        0.0203
      2 C         139.8878  143.4960  166.6445 C.ar    1  UNL1        0.0310
      3 C         139.2404  144.0566  165.4130 C.ar    1  UNL1        0.1414
      4 F         138.0209  144.9215  165.5343 F       1  UNL1       -0.2041
      5 C         139.8126  143.7522  164.0602 C.ar    1  UNL1        0.0440
      6 C         141.0321  142.8873  163.9389 C.ar    1  UNL1        0.0488
      7 C         141.6795  142.3267  165.1705 C.ar    1  UNL1       -0.0067
      8 C         142.8990  141.4618  165.0493 C.3     1  UNL1        0.0324
      9 C         141.1406  140.8954  168.4563 C.ar    1  UNL1        0.1870
     10 C         141.7880  140.3349  169.6878 C.ar    1  UNL1        0.1629
     11 N         141.1738  139.1598  170.3893 N.pl3   1  UNL1       -0.3401
     12 N         143.0494  140.9494  170.2179 N.ar    1  UNL1       -0.2063
     13 C         143.6636  142.1245  169.5165 C.ar    1  UNL1        0.2002
     14 N         143.0162  142.6850  168.2849 N.ar    1  UNL1       -0.2208
     15 C         141.7547  142.0705  167.7549 C.ar    1  UNL1        0.1194
     16 H         140.3459  138.7564  170.0414 H       1  UNL1        0.1438
     17 H         141.5987  138.7919  171.1976 H       1  UNL1        0.1438
     18 O         139.8791  140.2809  167.9262 O.3     1  UNL1       -0.4693
     19 C         139.9458  139.2570  166.8321 C.3     1  UNL1        0.2252
     20 C         141.3333  138.3824  164.0108 C.2     1  UNL1        0.2492
     21 O         142.0679  137.9015  165.2270 O.2     1  UNL1       -0.2699
     22 N         140.0781  139.1895  164.1632 N.am    1  UNL1       -0.2740
     23 C         139.2403  139.7362  163.0455 C.3     1  UNL1        0.0938
     24 C         138.0848  140.4761  163.6516 C.3     1  UNL1        0.0233
     25 C         138.2084  140.3867  165.1438 C.3     1  UNL1        0.0254
     26 C         139.4404  139.5914  165.4600 C.3     1  UNL1        0.1192
     27 C         142.9071  138.9207  162.0150 C.2     1  UNL1        0.0048
     28 C         141.8538  138.0564  162.6424 C.2     1  UNL1        0.0579
     29 N         141.6042  142.5830  162.5862 N.am    1  UNL1       -0.2805
     30 C         142.5358  143.5579  161.9293 C.2     1  UNL1        0.2517
     31 O         142.8953  144.8372  162.6251 O.2     1  UNL1       -0.2697
     32 H         141.3683  141.7433  162.1295 H       1  UNL1        0.1552
     33 C         143.1080  143.2536  160.5765 C.ar    1  UNL1        0.0810
     34 C         142.3828  143.6930  159.3392 C.ar    1  UNL1        0.0065
     35 C         142.9550  143.3887  157.9865 C.ar    1  UNL1       -0.0040
     36 C         144.2524  142.6449  157.8710 C.ar    1  UNL1       -0.0203
     37 C         144.9777  142.2054  159.1082 C.ar    1  UNL1        0.0255
     38 C         144.4055  142.5098  160.4610 C.ar    1  UNL1        0.1441
     39 F         145.1308  142.0703  161.6983 F       1  UNL1       -0.2040
     40 C         144.8246  142.3406  156.5182 C.3     1  UNL1        0.0224
     41 C         144.6714  141.7603  155.1435 C.3     1  UNL1        0.0047
     42 C         145.9689  142.3938  155.5497 C.3     1  UNL1        0.0047
@<TRIPOS>BOND
     1    27    28    2
     2    28    20    1
     3    20    21    2
     4    20    22   am
     5    22    23    1
     6    23    24    1
     7    24    25    1
     8    25    26    1
     9    26    19    1
    10    19    18    1
    11    18     9    1
    12     9    10   ar
    13    10    11    1
    14    10    12   ar
    15    12    13   ar
    16    13    14   ar
    17    14    15   ar
    18    15     1    1
    19     1     2   ar
    20     2     3   ar
    21     3     4    1
    22     3     5   ar
    23     5     6   ar
    24     6    29    1
    25    29    30   am
    26    30    31    2
    27    30    33    1
    28    33    34   ar
    29    34    35   ar
    30    35    36   ar
    31    36    40    1
    32    40    41    1
    33    41    42    1
    34    36    37   ar
    35    37    38   ar
    36    38    39    1
    37     6     7   ar
    38     7     8    1
    39    26    22    1
    40    15     9   ar
    41     7     1   ar
    42    38    33   ar
    43    42    40    1
    44    11    16    1
    45    11    17    1
    46    29    32    1
@<TRIPOS>MOLECULE
*****
 42 46 0 0 0
SMALL
GASTEIGER

@<TRIPOS>ATOM
      1 C         139.9989  141.2218  167.1183 C.ar    1  UNL1        0.0203
      2 C         139.1427  140.0348  167.4469 C.ar    1  UNL1        0.0310
      3 C         138.4774  139.2623  166.3466 C.ar    1  UNL1        0.1414
      4 F         137.6213  138.0753  166.6752 F       1  UNL1       -0.2041
      5 C         138.6684  139.6768  164.9177 C.ar    1  UNL1        0.0440
      6 C         139.5246  140.8638  164.5891 C.ar    1  UNL1        0.0488
      7 C         140.1898  141.6363  165.6894 C.ar    1  UNL1       -0.0067
      8 C         141.0460  142.8233  165.3609 C.3     1  UNL1        0.0324
      9 C         142.0104  141.5695  168.7255 C.ar    1  UNL1        0.1870
     10 C         142.6755  142.3420  169.8258 C.ar    1  UNL1        0.1629
     11 N         144.0219  141.9171  170.3326 N.pl3   1  UNL1       -0.3401
     12 N         141.9944  143.5394  170.4193 N.ar    1  UNL1       -0.2063
     13 C         140.6481  143.9643  169.9125 C.ar    1  UNL1        0.2002
     14 N         139.9829  143.1918  168.8122 N.ar    1  UNL1       -0.2208
     15 C         140.6641  141.9944  168.2187 C.ar    1  UNL1        0.1194
     16 H         144.4690  141.1313  169.9431 H       1  UNL1        0.1438
     17 H         144.4585  142.4242  171.0548 H       1  UNL1        0.1438
     18 O         142.6915  140.3721  168.1320 O.3     1  UNL1       -0.4693
     19 C         143.4245  140.4953  166.8291 C.3     1  UNL1        0.2252
     20 C         143.9579  141.2614  163.7020 C.2     1  UNL1        0.2492
     21 O         144.5280  142.2478  164.6778 O.2     1  UNL1       -0.2699
     22 N         143.2205  140.0540  164.2006 N.am    1  UNL1       -0.2740
     23 C         142.5990  138.9867  163.3493 C.3     1  UNL1        0.0938
     24 C         141.9696  137.9750  164.2606 C.3     1  UNL1        0.0233
     25 C         142.2022  138.4169  165.6750 C.3     1  UNL1        0.0254
     26 C         142.9754  139.7019  165.6379 C.3     1  UNL1        0.1192
     27 C         143.0658  142.2092  161.4535 C.2     1  UNL1        0.0048
     28 C         144.1251  141.4824  162.2279 C.2     1  UNL1        0.0579
     29 N         139.7156  141.2783  163.1602 N.am    1  UNL1       -0.2805
     30 C         138.8801  142.3813  162.5812 C.2     1  UNL1        0.2517
     31 O         137.8537  143.0699  163.4311 O.2     1  UNL1       -0.2697
     32 H         140.3893  140.8263  162.6024 H       1  UNL1        0.1552
     33 C         139.0711  142.7959  161.1523 C.ar    1  UNL1        0.0810
     34 C         139.8604  144.0295  160.8284 C.ar    1  UNL1        0.0065
     35 C         140.0513  144.4440  159.3995 C.ar    1  UNL1       -0.0040
     36 C         139.4529  143.6248  158.2946 C.ar    1  UNL1       -0.0203
     37 C         138.6636  142.3911  158.6185 C.ar    1  UNL1        0.0255
     38 C         138.4727  141.9767  160.0474 C.ar    1  UNL1        0.1441
     39 F         137.6833  140.7429  160.3714 F       1  UNL1       -0.2040
     40 C         139.6439  144.0393  156.8656 C.3     1  UNL1        0.0224
     41 C         139.2705  144.9143  155.7059 C.3     1  UNL1        0.0047
     42 C         140.3480  143.8824  155.5505 C.3     1  UNL1        0.0047
@<TRIPOS>BOND
     1    27    28    2
     2    28    20    1
     3    20    21    2
     4    20    22   am
     5    22    23    1
     6    23    24    1
     7    24    25    1
     8    25    26    1
     9    26    19    1
    10    19    18    1
    11    18     9    1
    12     9    10   ar
    13    10    11    1
    14    10    12   ar
    15    12    13   ar
    16    13    14   ar
    17    14    15   ar
    18    15     1    1
    19     1     2   ar
    20     2     3   ar
    21     3     4    1
    22     3     5   ar
    23     5     6   ar
    24     6    29    1
    25    29    30   am
    26    30    31    2
    27    30    33    1
    28    33    34   ar
    29    34    35   ar
    30    35    36   ar
    31    36    40    1
    32    40    41    1
    33    41    42    1
    34    36    37   ar
    35    37    38   ar
    36    38    39    1
    37     6     7   ar
    38     7     8    1
    39    26    22    1
    40    15     9   ar
    41     7     1   ar
    42    38    33   ar
    43    42    40    1
    44    11    16    1
    45    11    17    1
    46    29    32    1
@<TRIPOS>MOLECULE
*****
 42 46 0 0 0
SMALL
GASTEIGER

@<TRIPOS>ATOM
      1 C         140.2169  139.7539  162.4621 C.ar    1  UNL1        0.0203
      2 C         139.0783  138.7794  162.3997 C.ar    1  UNL1        0.0310
      3 C         137.9090  139.0488  161.4996 C.ar    1  UNL1        0.1414
      4 F         136.7703  138.0743  161.4373 F       1  UNL1       -0.2041
      5 C         137.8783  140.2928  160.6619 C.ar    1  UNL1        0.0440
      6 C         139.0169  141.2672  160.7243 C.ar    1  UNL1        0.0488
      7 C         140.1863  140.9978  161.6244 C.ar    1  UNL1       -0.0067
      8 C         141.3249  141.9722  161.6868 C.3     1  UNL1        0.0324
      9 C         141.2347  139.6171  164.8486 C.ar    1  UNL1        0.1870
     10 C         142.4040  139.3476  165.7486 C.ar    1  UNL1        0.1629
     11 N         142.2526  139.4803  167.2351 N.pl3   1  UNL1       -0.3401
     12 N         143.7248  138.9455  165.1622 N.ar    1  UNL1       -0.2063
     13 C         143.8763  138.8128  163.6759 C.ar    1  UNL1        0.2002
     14 N         142.7070  139.0823  162.7758 N.ar    1  UNL1       -0.2208
     15 C         141.3862  139.4844  163.3622 C.ar    1  UNL1        0.1194
     16 H         141.3857  139.7442  167.6200 H       1  UNL1        0.1438
     17 H         143.0200  139.3034  167.8258 H       1  UNL1        0.1438
     18 O         139.9139  140.0192  165.4349 O.3     1  UNL1       -0.4693
     19 C         139.6818  141.4399  165.8563 C.3     1  UNL1        0.2252
     20 C         141.3474  143.9281  164.5585 C.2     1  UNL1        0.2492
     21 O         142.1439  143.0955  165.5190 O.2     1  UNL1       -0.2699
     22 N         139.9161  143.5812  164.2736 N.am    1  UNL1       -0.2740
     23 C         138.9992  144.3171  163.3420 C.3     1  UNL1        0.0938
     24 C         137.6669  143.6281  163.3628 C.3     1  UNL1        0.0233
     25 C         137.7604  142.4665  164.3072 C.3     1  UNL1        0.0254
     26 C         139.1506  142.4375  164.8701 C.3     1  UNL1        0.1192
     27 C         143.4590  145.1171  163.6220 C.2     1  UNL1        0.0048
     28 C         141.9820  145.1075  163.8832 C.2     1  UNL1        0.0579
     29 N         138.9863  142.5111  159.8866 N.am    1  UNL1       -0.2805
     30 C         139.6768  142.5359  158.5552 C.2     1  UNL1        0.2517
     31 O         140.3980  141.3168  158.0616 O.2     1  UNL1       -0.2697
     32 H         138.5130  143.3113  160.2106 H       1  UNL1        0.1552
     33 C         139.6462  143.7798  157.7175 C.ar    1  UNL1        0.0810
     34 C         138.8690  143.8013  156.4348 C.ar    1  UNL1        0.0065
     35 C         138.8384  145.0451  155.5971 C.ar    1  UNL1       -0.0040
     36 C         139.5851  146.2676  156.0421 C.ar    1  UNL1       -0.0203
     37 C         140.3623  146.2462  157.3248 C.ar    1  UNL1        0.0255
     38 C         140.3929  145.0023  158.1625 C.ar    1  UNL1        0.1441
     39 F         141.1702  144.9809  159.4453 F       1  UNL1       -0.2040
     40 C         139.5544  147.5115  155.2043 C.3     1  UNL1        0.0224
     41 C         139.9857  148.2647  153.9809 C.3     1  UNL1        0.0047
     42 C         139.0702  148.9129  154.9767 C.3     1  UNL1        0.0047
@<TRIPOS>BOND
     1    27    28    2
     2    28    20    1
     3    20    21    2
     4    20    22   am
     5    22    23    1
     6    23    24    1
     7    24    25    1
     8    25    26    1
     9    26    19    1
    10    19    18    1
    11    18     9    1
    12     9    10   ar
    13    10    11    1
    14    10    12   ar
    15    12    13   ar
    16    13    14   ar
    17    14    15   ar
    18    15     1    1
    19     1     2   ar
    20     2     3   ar
    21     3     4    1
    22     3     5   ar
    23     5     6   ar
    24     6    29    1
    25    29    30   am
    26    30    31    2
    27    30    33    1
    28    33    34   ar
    29    34    35   ar
    30    35    36   ar
    31    36    40    1
    32    40    41    1
    33    41    42    1
    34    36    37   ar
    35    37    38   ar
    36    38    39    1
    37     6     7   ar
    38     7     8    1
    39    26    22    1
    40    15     9   ar
    41     7     1   ar
    42    38    33   ar
    43    42    40    1
    44    11    16    1
    45    11    17    1
    46    29    32    1
@<TRIPOS>MOLECULE
*****
 42 46 0 0 0
SMALL
GASTEIGER

@<TRIPOS>ATOM
      1 C         142.0799  140.2041  159.0538 C.ar    1  UNL1        0.0203
      2 C         142.3994  141.5117  158.3919 C.ar    1  UNL1        0.0310
      3 C         142.5839  142.7473  159.2222 C.ar    1  UNL1        0.1414
      4 F         142.9034  144.0549  158.5603 F       1  UNL1       -0.2041
      5 C         142.4489  142.6752  160.7144 C.ar    1  UNL1        0.0440
      6 C         142.1294  141.3676  161.3763 C.ar    1  UNL1        0.0488
      7 C         141.9449  140.1320  160.5459 C.ar    1  UNL1       -0.0067
      8 C         141.6254  138.8244  161.2078 C.3     1  UNL1        0.0324
      9 C         140.5580  138.6664  157.6154 C.ar    1  UNL1        0.1870
     10 C         140.3736  137.4309  156.7851 C.ar    1  UNL1        0.1629
     11 N         139.0361  137.1286  156.1769 N.pl3   1  UNL1       -0.3401
     12 N         141.5266  136.4975  156.5628 N.ar    1  UNL1       -0.2063
     13 C         142.8641  136.7997  157.1709 C.ar    1  UNL1        0.2002
     14 N         143.0485  138.0352  158.0012 N.ar    1  UNL1       -0.2208
     15 C         141.8955  138.9686  158.2234 C.ar    1  UNL1        0.1194
     16 H         138.2793  137.7411  156.3228 H       1  UNL1        0.1438
     17 H         138.9150  136.3177  155.6320 H       1  UNL1        0.1438
     18 O         139.4049  139.5997  157.8376 O.3     1  UNL1       -0.4693
     19 C         138.6377  139.5505  159.1255 C.3     1  UNL1        0.2252
     20 C         138.2860  139.4723  162.3690 C.2     1  UNL1        0.2492
     21 O         138.2518  138.1209  161.7187 O.2     1  UNL1       -0.2699
     22 N         138.4696  140.7031  161.5314 N.am    1  UNL1       -0.2740
     23 C         138.5237  142.1140  162.0377 C.3     1  UNL1        0.0938
     24 C         138.7188  143.0220  160.8598 C.3     1  UNL1        0.0233
     25 C         138.7853  142.1722  159.6254 C.3     1  UNL1        0.0254
     26 C         138.6312  140.7390  160.0406 C.3     1  UNL1        0.1192
     27 C         139.3003  139.2916  164.7540 C.2     1  UNL1        0.0048
     28 C         138.1367  139.5928  163.8566 C.2     1  UNL1        0.0579
     29 N         141.9943  141.2955  162.8684 N.am    1  UNL1       -0.2805
     30 C         143.1744  140.9106  163.7105 C.2     1  UNL1        0.2517
     31 O         144.4896  140.5977  163.0605 O.2     1  UNL1       -0.2697
     32 H         141.1312  141.5008  163.2951 H       1  UNL1        0.1552
     33 C         143.0394  140.8385  165.2027 C.ar    1  UNL1        0.0810
     34 C         143.0960  142.0934  166.0224 C.ar    1  UNL1        0.0065
     35 C         142.9610  142.0212  167.5146 C.ar    1  UNL1       -0.0040
     36 C         142.7694  140.6942  168.1870 C.ar    1  UNL1       -0.0203
     37 C         142.7129  139.4392  167.3673 C.ar    1  UNL1        0.0255
     38 C         142.8479  139.5114  165.8752 C.ar    1  UNL1        0.1441
     39 F         142.7914  138.2564  165.0554 F       1  UNL1       -0.2040
     40 C         142.6344  140.6220  169.6792 C.3     1  UNL1        0.0224
     41 C         143.0872  140.0726  170.9995 C.3     1  UNL1        0.0047
     42 C         141.9479  141.0466  170.9435 C.3     1  UNL1        0.0047
@<TRIPOS>BOND
     1    27    28    2
     2    28    20    1
     3    20    21    2
     4    20    22   am
     5    22    23    1
     6    23    24    1
     7    24    25    1
     8    25    26    1
     9    26    19    1
    10    19    18    1
    11    18     9    1
    12     9    10   ar
    13    10    11    1
    14    10    12   ar
    15    12    13   ar
    16    13    14   ar
    17    14    15   ar
    18    15     1    1
    19     1     2   ar
    20     2     3   ar
    21     3     4    1
    22     3     5   ar
    23     5     6   ar
    24     6    29    1
    25    29    30   am
    26    30    31    2
    27    30    33    1
    28    33    34   ar
    29    34    35   ar
    30    35    36   ar
    31    36    40    1
    32    40    41    1
    33    41    42    1
    34    36    37   ar
    35    37    38   ar
    36    38    39    1
    37     6     7   ar
    38     7     8    1
    39    26    22    1
    40    15     9   ar
    41     7     1   ar
    42    38    33   ar
    43    42    40    1
    44    11    16    1
    45    11    17    1
    46    29    32    1
@<TRIPOS>MOLECULE
*****
 42 46 0 0 0
SMALL
GASTEIGER

@<TRIPOS>ATOM
      1 C         139.7785  141.2224  167.3557 C.ar    1  UNL1        0.0203
      2 C         139.2043  139.8892  167.7338 C.ar    1  UNL1        0.0310
      3 C         138.4324  139.0916  166.7248 C.ar    1  UNL1        0.1414
      4 F         137.8582  137.7584  167.1029 F       1  UNL1       -0.2041
      5 C         138.2346  139.6273  165.3377 C.ar    1  UNL1        0.0440
      6 C         138.8088  140.9605  164.9596 C.ar    1  UNL1        0.0488
      7 C         139.5807  141.7580  165.9686 C.ar    1  UNL1       -0.0067
      8 C         140.1549  143.0912  165.5906 C.3     1  UNL1        0.0324
      9 C         141.9533  141.6245  168.7189 C.ar    1  UNL1        0.1870
     10 C         142.7252  142.4220  169.7279 C.ar    1  UNL1        0.1629
     11 N         144.1282  142.0266  170.0822 N.pl3   1  UNL1       -0.3401
     12 N         142.0942  143.6149  170.3827 N.ar    1  UNL1       -0.2063
     13 C         140.6913  144.0104  170.0285 C.ar    1  UNL1        0.2002
     14 N         139.9194  143.2128  169.0195 N.ar    1  UNL1       -0.2208
     15 C         140.5504  142.0199  168.3647 C.ar    1  UNL1        0.1194
     16 H         144.5423  141.2436  169.6525 H       1  UNL1        0.1438
     17 H         144.6348  142.5500  170.7445 H       1  UNL1        0.1438
     18 O         142.5843  140.4315  168.0642 O.3     1  UNL1       -0.4693
     19 C         142.6437  140.3410  166.5681 C.3     1  UNL1        0.2252
     20 C         143.7899  139.9936  163.5325 C.2     1  UNL1        0.2492
     21 O         143.0833  138.7803  164.0606 O.2     1  UNL1       -0.2699
     22 N         143.9161  141.2194  164.3876 N.am    1  UNL1       -0.2740
     23 C         144.5914  142.5008  163.9976 C.3     1  UNL1        0.0938
     24 C         144.4819  143.4525  165.1519 C.3     1  UNL1        0.0233
     25 C         143.7390  142.7593  166.2553 C.3     1  UNL1        0.0254
     26 C         143.3893  141.3791  165.7830 C.3     1  UNL1        0.1192
     27 C         144.0490  138.8551  161.2115 C.2     1  UNL1        0.0048
     28 C         144.3701  139.9809  162.1494 C.2     1  UNL1        0.0579
     29 N         138.6110  141.4961  163.5726 N.am    1  UNL1       -0.2805
     30 C         139.3478  140.8821  162.4193 C.2     1  UNL1        0.2517
     31 O         140.2824  139.7323  162.6532 O.2     1  UNL1       -0.2697
     32 H         137.9976  142.2508  163.4191 H       1  UNL1        0.1552
     33 C         139.1500  141.4177  161.0322 C.ar    1  UNL1        0.0810
     34 C         138.4360  140.5915  160.0039 C.ar    1  UNL1        0.0065
     35 C         138.2383  141.1272  158.6169 C.ar    1  UNL1       -0.0040
     36 C         138.7546  142.4891  158.2581 C.ar    1  UNL1       -0.0203
     37 C         139.4686  143.3153  159.2865 C.ar    1  UNL1        0.0255
     38 C         139.6663  142.7796  160.6735 C.ar    1  UNL1        0.1441
     39 F         140.3804  143.6059  161.7019 F       1  UNL1       -0.2040
     40 C         138.5569  143.0247  156.8710 C.3     1  UNL1        0.0224
     41 C         139.0209  143.1556  155.4506 C.3     1  UNL1        0.0047
     42 C         137.7504  143.8216  155.8889 C.3     1  UNL1        0.0047
@<TRIPOS>BOND
     1    27    28    2
     2    28    20    1
     3    20    21    2
     4    20    22   am
     5    22    23    1
     6    23    24    1
     7    24    25    1
     8    25    26    1
     9    26    19    1
    10    19    18    1
    11    18     9    1
    12     9    10   ar
    13    10    11    1
    14    10    12   ar
    15    12    13   ar
    16    13    14   ar
    17    14    15   ar
    18    15     1    1
    19     1     2   ar
    20     2     3   ar
    21     3     4    1
    22     3     5   ar
    23     5     6   ar
    24     6    29    1
    25    29    30   am
    26    30    31    2
    27    30    33    1
    28    33    34   ar
    29    34    35   ar
    30    35    36   ar
    31    36    40    1
    32    40    41    1
    33    41    42    1
    34    36    37   ar
    35    37    38   ar
    36    38    39    1
    37     6     7   ar
    38     7     8    1
    39    26    22    1
    40    15     9   ar
    41     7     1   ar
    42    38    33   ar
    43    42    40    1
    44    11    16    1
    45    11    17    1
    46    29    32    1
@<TRIPOS>MOLECULE
*****
 42 46 0 0 0
SMALL
GASTEIGER

@<TRIPOS>ATOM
      1 C         139.9496  141.3630  166.6718 C.ar    1  UNL1        0.0203
      2 C         139.3885  139.9726  166.6279 C.ar    1  UNL1        0.0310
      3 C         138.7652  139.4549  165.3656 C.ar    1  UNL1        0.1414
      4 F         138.2041  138.0645  165.3217 F       1  UNL1       -0.2041
      5 C         138.7029  140.3276  164.1471 C.ar    1  UNL1        0.0440
      6 C         139.2641  141.7180  164.1910 C.ar    1  UNL1        0.0488
      7 C         139.8874  142.2357  165.4534 C.ar    1  UNL1       -0.0067
      8 C         140.4485  143.6261  165.4973 C.3     1  UNL1        0.0324
      9 C         142.0596  142.0629  168.0166 C.ar    1  UNL1        0.1870
     10 C         142.6829  142.5805  169.2789 C.ar    1  UNL1        0.1629
     11 N         144.1695  142.7627  169.3613 N.pl3   1  UNL1       -0.3401
     12 N         141.8196  142.9160  170.4588 N.ar    1  UNL1       -0.2063
     13 C         140.3330  142.7338  170.3764 C.ar    1  UNL1        0.2002
     14 N         139.7097  142.2161  169.1140 N.ar    1  UNL1       -0.2208
     15 C         140.5730  141.8807  167.9341 C.ar    1  UNL1        0.1194
     16 H         144.7361  142.5426  168.5869 H       1  UNL1        0.1438
     17 H         144.5786  143.1025  170.1899 H       1  UNL1        0.1438
     18 O         142.9229  141.7274  166.8366 O.3     1  UNL1       -0.4693
     19 C         143.9842  142.6871  166.3868 C.3     1  UNL1        0.2252
     20 C         144.3831  140.8434  163.7239 C.2     1  UNL1        0.2492
     21 O         144.4123  140.0721  165.0102 O.2     1  UNL1       -0.2699
     22 N         144.1835  142.3299  163.7453 N.am    1  UNL1       -0.2740
     23 C         144.1321  143.2299  162.5464 C.3     1  UNL1        0.0938
     24 C         143.9171  144.6336  163.0294 C.3     1  UNL1        0.0233
     25 C         143.8354  144.6012  164.5269 C.3     1  UNL1        0.0254
     26 C         144.0001  143.1774  164.9693 C.3     1  UNL1        0.1192
     27 C         143.8821  138.8059  162.1918 C.2     1  UNL1        0.0048
     28 C         144.5536  140.1283  162.4165 C.2     1  UNL1        0.0579
     29 N         139.2018  142.5907  162.9727 N.am    1  UNL1       -0.2805
     30 C         140.2203  142.4312  161.8831 C.2     1  UNL1        0.2517
     31 O         141.3010  141.3989  162.0119 O.2     1  UNL1       -0.2697
     32 H         138.4925  143.2682  162.8881 H       1  UNL1        0.1552
     33 C         140.1581  143.3039  160.6646 C.ar    1  UNL1        0.0810
     34 C         139.7651  142.7173  159.3412 C.ar    1  UNL1        0.0065
     35 C         139.7029  143.5901  158.1229 C.ar    1  UNL1       -0.0040
     36 C         140.0338  145.0493  158.2279 C.ar    1  UNL1       -0.0203
     37 C         140.4269  145.6359  159.5513 C.ar    1  UNL1        0.0255
     38 C         140.4890  144.7632  160.7697 C.ar    1  UNL1        0.1441
     39 F         140.8821  145.3497  162.0932 F       1  UNL1       -0.2040
     40 C         139.9716  145.9221  157.0095 C.3     1  UNL1        0.0224
     41 C         140.5393  146.3523  155.6894 C.3     1  UNL1        0.0047
     42 C         139.2962  147.0034  156.2192 C.3     1  UNL1        0.0047
@<TRIPOS>BOND
     1    27    28    2
     2    28    20    1
     3    20    21    2
     4    20    22   am
     5    22    23    1
     6    23    24    1
     7    24    25    1
     8    25    26    1
     9    26    19    1
    10    19    18    1
    11    18     9    1
    12     9    10   ar
    13    10    11    1
    14    10    12   ar
    15    12    13   ar
    16    13    14   ar
    17    14    15   ar
    18    15     1    1
    19     1     2   ar
    20     2     3   ar
    21     3     4    1
    22     3     5   ar
    23     5     6   ar
    24     6    29    1
    25    29    30   am
    26    30    31    2
    27    30    33    1
    28    33    34   ar
    29    34    35   ar
    30    35    36   ar
    31    36    40    1
    32    40    41    1
    33    41    42    1
    34    36    37   ar
    35    37    38   ar
    36    38    39    1
    37     6     7   ar
    38     7     8    1
    39    26    22    1
    40    15     9   ar
    41     7     1   ar
    42    38    33   ar
    43    42    40    1
    44    11    16    1
    45    11    17    1
    46    29    32    1
@<TRIPOS>MOLECULE
*****
 42 46 0 0 0
SMALL
GASTEIGER

@<TRIPOS>ATOM
      1 C         141.9720  142.1654  158.7001 C.ar    1  UNL1        0.0203
      2 C         142.4963  141.0263  157.8770 C.ar    1  UNL1        0.0310
      3 C         142.8586  139.7288  158.5367 C.ar    1  UNL1        0.1414
      4 F         143.3829  138.5896  157.7136 F       1  UNL1       -0.2041
      5 C         142.6966  139.5703  160.0195 C.ar    1  UNL1        0.0440
      6 C         142.1723  140.7095  160.8426 C.ar    1  UNL1        0.0488
      7 C         141.8100  142.0070  160.1829 C.ar    1  UNL1       -0.0067
      8 C         141.2857  143.1462  161.0060 C.3     1  UNL1        0.0324
      9 C         140.2763  143.6174  157.3711 C.ar    1  UNL1        0.1870
     10 C         139.9141  144.9149  156.7114 C.ar    1  UNL1        0.1629
     11 N         138.5806  145.0693  156.0420 N.pl3   1  UNL1       -0.3401
     12 N         140.8853  146.0580  156.7210 N.ar    1  UNL1       -0.2063
     13 C         142.2187  145.9035  157.3903 C.ar    1  UNL1        0.2002
     14 N         142.5809  144.6060  158.0500 N.ar    1  UNL1       -0.2208
     15 C         141.6097  143.4630  158.0404 C.ar    1  UNL1        0.1194
     16 H         137.9431  144.3191  156.0356 H       1  UNL1        0.1438
     17 H         138.3428  145.9210  155.6090 H       1  UNL1        0.1438
     18 O         139.3051  142.4743  157.3614 O.3     1  UNL1       -0.4693
     19 C         138.4519  142.2048  158.5654 C.3     1  UNL1        0.2252
     20 C         137.9147  141.8234  161.7615 C.2     1  UNL1        0.2492
     21 O         137.6457  143.2109  161.2588 O.2     1  UNL1       -0.2699
     22 N         138.3870  140.7609  160.8139 N.am    1  UNL1       -0.2740
     23 C         138.6953  139.3365  161.1691 C.3     1  UNL1        0.0938
     24 C         139.1328  138.6315  159.9195 C.3     1  UNL1        0.0233
     25 C         139.0949  139.6201  158.7919 C.3     1  UNL1        0.0254
     26 C         138.6339  140.9362  159.3448 C.3     1  UNL1        0.1192
     27 C         137.8728  142.5690  164.2499 C.2     1  UNL1        0.0048
     28 C         137.7113  141.4986  163.2117 C.2     1  UNL1        0.0579
     29 N         142.0103  140.5511  162.3254 N.am    1  UNL1       -0.2805
     30 C         143.2201  140.4194  163.2022 C.2     1  UNL1        0.2517
     31 O         144.5920  140.4460  162.5962 O.2     1  UNL1       -0.2697
     32 H         141.1098  140.5336  162.7231 H       1  UNL1        0.1552
     33 C         143.0582  140.2610  164.6850 C.ar    1  UNL1        0.0810
     34 C         143.3285  138.9348  165.3316 C.ar    1  UNL1        0.0065
     35 C         143.1665  138.7765  166.8144 C.ar    1  UNL1       -0.0040
     36 C         142.7342  139.9443  167.6505 C.ar    1  UNL1       -0.0203
     37 C         142.4639  141.2705  167.0040 C.ar    1  UNL1        0.0255
     38 C         142.6259  141.4289  165.5212 C.ar    1  UNL1        0.1441
     39 F         142.3555  142.7551  164.8745 F       1  UNL1       -0.2040
     40 C         142.5722  139.7860  169.1334 C.3     1  UNL1        0.0224
     41 C         141.9037  139.1287  170.3042 C.3     1  UNL1        0.0047
     42 C         142.9603  140.1689  170.5308 C.3     1  UNL1        0.0047
@<TRIPOS>BOND
     1    27    28    2
     2    28    20    1
     3    20    21    2
     4    20    22   am
     5    22    23    1
     6    23    24    1
     7    24    25    1
     8    25    26    1
     9    26    19    1
    10    19    18    1
    11    18     9    1
    12     9    10   ar
    13    10    11    1
    14    10    12   ar
    15    12    13   ar
    16    13    14   ar
    17    14    15   ar
    18    15     1    1
    19     1     2   ar
    20     2     3   ar
    21     3     4    1
    22     3     5   ar
    23     5     6   ar
    24     6    29    1
    25    29    30   am
    26    30    31    2
    27    30    33    1
    28    33    34   ar
    29    34    35   ar
    30    35    36   ar
    31    36    40    1
    32    40    41    1
    33    41    42    1
    34    36    37   ar
    35    37    38   ar
    36    38    39    1
    37     6     7   ar
    38     7     8    1
    39    26    22    1
    40    15     9   ar
    41     7     1   ar
    42    38    33   ar
    43    42    40    1
    44    11    16    1
    45    11    17    1
    46    29    32    1
@<TRIPOS>MOLECULE
*****
 42 46 0 0 0
SMALL
GASTEIGER

@<TRIPOS>ATOM
      1 C         141.4697  141.9779  159.1605 C.ar    1  UNL1        0.0203
      2 C         142.8122  142.3187  158.5848 C.ar    1  UNL1        0.0310
      3 C         144.0056  142.4398  159.4854 C.ar    1  UNL1        0.1414
      4 F         145.3481  142.7806  158.9097 F       1  UNL1       -0.2041
      5 C         143.8565  142.2201  160.9618 C.ar    1  UNL1        0.0440
      6 C         142.5139  141.8792  161.5375 C.ar    1  UNL1        0.0488
      7 C         141.3205  141.7581  160.6368 C.ar    1  UNL1       -0.0067
      8 C         139.9780  141.4173  161.2125 C.3     1  UNL1        0.0324
      9 C         139.9864  140.5570  157.5696 C.ar    1  UNL1        0.1870
     10 C         138.7930  140.4359  156.6690 C.ar    1  UNL1        0.1629
     11 N         138.5031  139.1361  155.9787 N.pl3   1  UNL1       -0.3401
     12 N         137.8895  141.6146  156.4586 N.ar    1  UNL1       -0.2063
     13 C         138.1794  142.9144  157.1488 C.ar    1  UNL1        0.2002
     14 N         139.3727  143.0355  158.0495 N.ar    1  UNL1       -0.2208
     15 C         140.2762  141.8567  158.2598 C.ar    1  UNL1        0.1194
     16 H         139.0961  138.3624  156.1167 H       1  UNL1        0.1438
     17 H         137.7198  139.0566  155.3875 H       1  UNL1        0.1438
     18 O         140.8899  139.3782  157.7799 O.3     1  UNL1       -0.4693
     19 C         140.6931  138.4852  158.9689 C.3     1  UNL1        0.2252
     20 C         140.2172  137.9039  162.1447 C.2     1  UNL1        0.2492
     21 O         138.9543  137.9482  161.3364 O.2     1  UNL1       -0.2699
     22 N         141.5430  138.1180  161.4765 N.am    1  UNL1       -0.2740
     23 C         142.8828  138.1025  162.1509 C.3     1  UNL1        0.0938
     24 C         143.9296  138.3601  161.1079 C.3     1  UNL1        0.0233
     25 C         143.2368  138.5349  159.7890 C.3     1  UNL1        0.0254
     26 C         141.7618  138.3852  160.0168 C.3     1  UNL1        0.1192
     27 C         140.0932  138.7959  164.5817 C.2     1  UNL1        0.0048
     28 C         140.1542  137.6456  163.6208 C.2     1  UNL1        0.0579
     29 N         142.3648  141.6595  163.0137 N.am    1  UNL1       -0.2805
     30 C         142.0547  142.8165  163.9166 C.2     1  UNL1        0.2517
     31 O         141.8938  144.1932  163.3432 O.2     1  UNL1       -0.2697
     32 H         142.4704  140.7560  163.3901 H       1  UNL1        0.1552
     33 C         141.9055  142.5968  165.3929 C.ar    1  UNL1        0.0810
     34 C         143.1220  142.4057  166.2494 C.ar    1  UNL1        0.0065
     35 C         142.9728  142.1861  167.7257 C.ar    1  UNL1       -0.0040
     36 C         141.6071  142.1575  168.3455 C.ar    1  UNL1       -0.0203
     37 C         140.3906  142.3486  167.4890 C.ar    1  UNL1        0.0255
     38 C         140.5398  142.5683  166.0127 C.ar    1  UNL1        0.1441
     39 F         139.3233  142.7594  165.1561 F       1  UNL1       -0.2040
     40 C         141.4579  141.9378  169.8219 C.3     1  UNL1        0.0224
     41 C         140.7178  142.1826  171.1033 C.3     1  UNL1        0.0047
     42 C         141.9396  141.3126  171.0974 C.3     1  UNL1        0.0047
@<TRIPOS>BOND
     1    27    28    2
     2    28    20    1
     3    20    21    2
     4    20    22   am
     5    22    23    1
     6    23    24    1
     7    24    25    1
     8    25    26    1
     9    26    19    1
    10    19    18    1
    11    18     9    1
    12     9    10   ar
    13    10    11    1
    14    10    12   ar
    15    12    13   ar
    16    13    14   ar
    17    14    15   ar
    18    15     1    1
    19     1     2   ar
    20     2     3   ar
    21     3     4    1
    22     3     5   ar
    23     5     6   ar
    24     6    29    1
    25    29    30   am
    26    30    31    2
    27    30    33    1
    28    33    34   ar
    29    34    35   ar
    30    35    36   ar
    31    36    40    1
    32    40    41    1
    33    41    42    1
    34    36    37   ar
    35    37    38   ar
    36    38    39    1
    37     6     7   ar
    38     7     8    1
    39    26    22    1
    40    15     9   ar
    41     7     1   ar
    42    38    33   ar
    43    42    40    1
    44    11    16    1
    45    11    17    1
    46    29    32    1
