@<TRIPOS>MOLECULE
*****
 36 39 0 0 0
SMALL
GASTEIGER

@<TRIPOS>ATOM
      1 C         142.1275  140.7450  163.8189 C.3     1  UNL1        0.2551
      2 N         142.1825  141.3053  165.2093 N.2     1  UNL1       -0.2434
      3 C         141.2786  141.0154  166.3707 C.2     1  UNL1        0.0795
      4 C         140.0966  140.0936  166.4287 C.ar    1  UNL1        0.0310
      5 C         139.4661  140.0960  167.7897 C.ar    1  UNL1        0.0027
      6 C         138.2656  139.2388  168.0616 C.ar    1  UNL1        0.0001
      7 C         137.6955  138.3793  166.9724 C.ar    1  UNL1        0.0013
      8 C         138.3260  138.3770  165.6114 C.ar    1  UNL1        0.0150
      9 C         139.5266  139.2341  165.3396 C.ar    1  UNL1        0.0556
     10 N         139.9978  139.0841  163.9234 N.am    1  UNL1       -0.2474
     11 C         141.1553  139.7565  163.2466 C.2     1  UNL1        0.2714
     12 O         141.3687  139.3922  161.8073 O.2     1  UNL1       -0.2705
     13 C         141.5991  141.7435  167.6423 C.ar    1  UNL1        0.0174
     14 C         142.8892  141.4716  168.3576 C.ar    1  UNL1        0.0015
     15 C         143.2097  142.1997  169.6293 C.ar    1  UNL1        0.0000
     16 C         142.2400  143.1998  170.1857 C.ar    1  UNL1        0.0000
     17 C         140.9500  143.4718  169.4704 C.ar    1  UNL1        0.0000
     18 C         140.6294  142.7437  168.1988 C.ar    1  UNL1        0.0015
     19 O         141.5023  142.9539  161.8875 O.2     1  UNL1       -0.2747
     20 C         142.8721  142.3430  161.9104 C.2     1  UNL1        0.2285
     21 N         143.1847  141.2386  162.8761 N.am    1  UNL1       -0.2795
     22 H         144.0838  140.8376  162.8912 H       1  UNL1        0.1516
     23 C         143.9293  142.8365  160.9677 C.3     1  UNL1        0.1114
     24 C         144.1724  142.1205  159.6722 C.ar    1  UNL1       -0.0114
     25 C         145.1754  142.6580  158.6949 C.ar    1  UNL1        0.0077
     26 C         145.4185  141.9420  157.3994 C.ar    1  UNL1        0.0582
     27 CL        146.4214  142.4795  156.4221 Cl      1  UNL1       -0.0822
     28 C         144.6586  140.6884  157.0812 C.ar    1  UNL1        0.0228
     29 C         143.6556  140.1509  158.0586 C.ar    1  UNL1        0.0582
     30 CL        142.8958  138.8974  157.7404 Cl      1  UNL1       -0.0822
     31 C         143.4126  140.8669  159.3540 C.ar    1  UNL1        0.0077
     32 C         139.2068  138.1363  163.0713 C.3     1  UNL1        0.2017
     33 C         138.2218  138.6687  162.0730 C.3     1  UNL1        0.4160
     34 F         137.2369  139.2011  161.0749 F       1  UNL1       -0.1682
     35 F         137.5151  139.7670  162.8108 F       1  UNL1       -0.1682
     36 F         138.7046  137.6695  161.0639 F       1  UNL1       -0.1682
@<TRIPOS>BOND
     1    19    20    2
     2    20    23    1
     3    23    24    1
     4    24    25   ar
     5    25    26   ar
     6    26    27    1
     7    26    28   ar
     8    28    29   ar
     9    29    30    1
    10    29    31   ar
    11    20    21   am
    12     1    21    1
    13     1     2    1
    14     2     3    2
    15     3    13    1
    16    13    14   ar
    17    14    15   ar
    18    15    16   ar
    19    16    17   ar
    20    17    18   ar
    21     3     4    1
    22     4     5   ar
    23     5     6   ar
    24     6     7   ar
    25     7     8   ar
    26     8     9   ar
    27     9    10    1
    28    10    32    1
    29    32    33    1
    30    33    34    1
    31    33    35    1
    32    33    36    1
    33    10    11   am
    34    11    12    2
    35    31    24   ar
    36    11     1    1
    37    18    13   ar
    38     9     4   ar
    39    21    22    1
@<TRIPOS>MOLECULE
*****
 36 39 0 0 0
SMALL
GASTEIGER

@<TRIPOS>ATOM
      1 C         142.0671  140.8195  163.8645 C.3     1  UNL1        0.2551
      2 N         142.1255  141.3595  165.2628 N.2     1  UNL1       -0.2434
      3 C         141.2316  141.0440  166.4252 C.2     1  UNL1        0.0795
      4 C         140.0584  140.1107  166.4766 C.ar    1  UNL1        0.0310
      5 C         139.4364  140.0870  167.8413 C.ar    1  UNL1        0.0027
      6 C         138.2454  139.2149  168.1076 C.ar    1  UNL1        0.0001
      7 C         137.6764  138.3665  167.0092 C.ar    1  UNL1        0.0013
      8 C         138.2984  138.3902  165.6445 C.ar    1  UNL1        0.0150
      9 C         139.4894  139.2623  165.3782 C.ar    1  UNL1        0.0556
     10 N         139.9531  139.1378  163.9571 N.am    1  UNL1       -0.2474
     11 C         141.1003  139.8307  163.2834 C.2     1  UNL1        0.2714
     12 O         141.3081  139.4899  161.8376 O.2     1  UNL1       -0.2705
     13 C         141.5533  141.7560  167.7056 C.ar    1  UNL1        0.0174
     14 C         142.8226  141.4411  168.4404 C.ar    1  UNL1        0.0015
     15 C         143.1444  142.1532  169.7208 C.ar    1  UNL1        0.0000
     16 C         142.1969  143.1800  170.2665 C.ar    1  UNL1        0.0000
     17 C         140.9277  143.4949  169.5319 C.ar    1  UNL1        0.0000
     18 C         140.6059  142.7829  168.2514 C.ar    1  UNL1        0.0015
     19 O         141.5789  143.3441  162.3191 O.2     1  UNL1       -0.2747
     20 C         142.8698  142.5990  162.1502 C.2     1  UNL1        0.2285
     21 N         143.1138  141.3367  162.9228 N.am    1  UNL1       -0.2795
     22 H         143.9611  140.8477  162.8119 H       1  UNL1        0.1516
     23 C         143.9166  143.1162  161.2085 C.3     1  UNL1        0.1114
     24 C         143.7387  142.9552  159.7277 C.ar    1  UNL1       -0.0114
     25 C         142.5784  143.6076  159.0364 C.ar    1  UNL1        0.0077
     26 C         142.4006  143.4467  157.5556 C.ar    1  UNL1        0.0582
     27 CL        141.2403  144.0991  156.8643 Cl      1  UNL1       -0.0822
     28 C         143.3831  142.6333  156.7663 C.ar    1  UNL1        0.0228
     29 C         144.5435  141.9809  157.4577 C.ar    1  UNL1        0.0582
     30 CL        145.5260  141.1675  156.6684 Cl      1  UNL1       -0.0822
     31 C         144.7213  142.1418  158.9384 C.ar    1  UNL1        0.0077
     32 C         139.1655  138.1956  163.0958 C.3     1  UNL1        0.2017
     33 C         138.2062  138.7351  162.0765 C.3     1  UNL1        0.4160
     34 F         137.2470  139.2746  161.0574 F       1  UNL1       -0.1682
     35 F         137.4971  139.8436  162.7966 F       1  UNL1       -0.1682
     36 F         138.6979  137.7272  161.0804 F       1  UNL1       -0.1682
@<TRIPOS>BOND
     1    19    20    2
     2    20    23    1
     3    23    24    1
     4    24    25   ar
     5    25    26   ar
     6    26    27    1
     7    26    28   ar
     8    28    29   ar
     9    29    30    1
    10    29    31   ar
    11    20    21   am
    12     1    21    1
    13     1     2    1
    14     2     3    2
    15     3    13    1
    16    13    14   ar
    17    14    15   ar
    18    15    16   ar
    19    16    17   ar
    20    17    18   ar
    21     3     4    1
    22     4     5   ar
    23     5     6   ar
    24     6     7   ar
    25     7     8   ar
    26     8     9   ar
    27     9    10    1
    28    10    32    1
    29    32    33    1
    30    33    34    1
    31    33    35    1
    32    33    36    1
    33    10    11   am
    34    11    12    2
    35    31    24   ar
    36    11     1    1
    37    18    13   ar
    38     9     4   ar
    39    21    22    1
@<TRIPOS>MOLECULE
*****
 36 39 0 0 0
SMALL
GASTEIGER

@<TRIPOS>ATOM
      1 C         140.6777  142.4793  163.6756 C.3     1  UNL1        0.2551
      2 N         141.1167  142.6616  165.0983 N.2     1  UNL1       -0.2434
      3 C         140.6653  141.9162  166.3191 C.2     1  UNL1        0.0795
      4 C         139.6633  140.8043  166.4189 C.ar    1  UNL1        0.0310
      5 C         139.5036  140.3360  167.8349 C.ar    1  UNL1        0.0027
      6 C         138.5459  139.2267  168.1544 C.ar    1  UNL1        0.0001
      7 C         137.7479  138.5857  167.0579 C.ar    1  UNL1        0.0013
      8 C         137.9077  139.0540  165.6419 C.ar    1  UNL1        0.0150
      9 C         138.8653  140.1633  165.3224 C.ar    1  UNL1        0.0556
     10 N         138.8723  140.4758  163.8553 N.am    1  UNL1       -0.2474
     11 C         139.6788  141.5065  163.1224 C.2     1  UNL1        0.2714
     12 O         139.4571  141.5733  161.6404 O.2     1  UNL1       -0.2705
     13 C         141.2997  142.3384  167.6111 C.ar    1  UNL1        0.0174
     14 C         140.5144  143.1422  168.6048 C.ar    1  UNL1        0.0015
     15 C         141.1488  143.5645  169.8968 C.ar    1  UNL1        0.0000
     16 C         142.5685  143.1830  170.1951 C.ar    1  UNL1        0.0000
     17 C         143.3537  142.3793  169.2015 C.ar    1  UNL1        0.0000
     18 C         142.7194  141.9570  167.9095 C.ar    1  UNL1        0.0015
     19 O         139.1425  144.7977  162.5493 O.2     1  UNL1       -0.2747
     20 C         140.5553  144.5493  162.1104 C.2     1  UNL1        0.2285
     21 N         141.3228  143.3902  162.6735 N.am    1  UNL1       -0.2795
     22 H         142.2500  143.2272  162.3855 H       1  UNL1        0.1516
     23 C         141.2004  145.4602  161.1084 C.3     1  UNL1        0.1114
     24 C         141.2527  145.0669  159.6617 C.ar    1  UNL1       -0.0114
     25 C         140.3541  145.7417  158.6681 C.ar    1  UNL1        0.0077
     26 C         140.4063  145.3484  157.2215 C.ar    1  UNL1        0.0582
     27 CL        139.5078  146.0232  156.2279 Cl      1  UNL1       -0.0822
     28 C         141.3571  144.2803  156.7685 C.ar    1  UNL1        0.0228
     29 C         142.2557  143.6055  157.7622 C.ar    1  UNL1        0.0582
     30 CL        143.2065  142.5374  157.3092 Cl      1  UNL1       -0.0822
     31 C         142.2035  143.9988  159.2088 C.ar    1  UNL1        0.0077
     32 C         137.9507  139.6482  163.0093 C.3     1  UNL1        0.2017
     33 C         138.5112  138.6001  162.0942 C.3     1  UNL1        0.4160
     34 F         139.0718  137.5521  161.1791 F       1  UNL1       -0.1682
     35 F         139.5423  137.9019  162.9305 F       1  UNL1       -0.1682
     36 F         137.5884  139.0584  161.0041 F       1  UNL1       -0.1682
@<TRIPOS>BOND
     1    19    20    2
     2    20    23    1
     3    23    24    1
     4    24    25   ar
     5    25    26   ar
     6    26    27    1
     7    26    28   ar
     8    28    29   ar
     9    29    30    1
    10    29    31   ar
    11    20    21   am
    12     1    21    1
    13     1     2    1
    14     2     3    2
    15     3    13    1
    16    13    14   ar
    17    14    15   ar
    18    15    16   ar
    19    16    17   ar
    20    17    18   ar
    21     3     4    1
    22     4     5   ar
    23     5     6   ar
    24     6     7   ar
    25     7     8   ar
    26     8     9   ar
    27     9    10    1
    28    10    32    1
    29    32    33    1
    30    33    34    1
    31    33    35    1
    32    33    36    1
    33    10    11   am
    34    11    12    2
    35    31    24   ar
    36    11     1    1
    37    18    13   ar
    38     9     4   ar
    39    21    22    1
@<TRIPOS>MOLECULE
*****
 36 39 0 0 0
SMALL
GASTEIGER

@<TRIPOS>ATOM
      1 C         141.2030  142.1874  163.8321 C.3     1  UNL1        0.2551
      2 N         141.5716  142.4051  165.2697 N.2     1  UNL1       -0.2434
      3 C         140.9759  141.7747  166.4936 C.2     1  UNL1        0.0795
      4 C         139.8647  140.7711  166.5822 C.ar    1  UNL1        0.0310
      5 C         139.5745  140.3990  168.0060 C.ar    1  UNL1        0.0027
      6 C         138.4942  139.4057  168.3163 C.ar    1  UNL1        0.0001
      7 C         137.7041  138.7845  167.2029 C.ar    1  UNL1        0.0013
      8 C         137.9943  139.1565  165.7790 C.ar    1  UNL1        0.0150
      9 C         139.0746  140.1498  165.4687 C.ar    1  UNL1        0.0556
     10 N         139.2007  140.3789  163.9916 N.am    1  UNL1       -0.2474
     11 C         140.1478  141.2856  163.2632 C.2     1  UNL1        0.2714
     12 O         140.0235  141.2914  161.7685 O.2     1  UNL1       -0.2705
     13 C         141.5701  142.2050  167.8020 C.ar    1  UNL1        0.0174
     14 C         140.7767  143.0672  168.7386 C.ar    1  UNL1        0.0015
     15 C         141.3709  143.4974  170.0470 C.ar    1  UNL1        0.0000
     16 C         142.7584  143.0654  170.4188 C.ar    1  UNL1        0.0000
     17 C         143.5517  142.2033  169.4822 C.ar    1  UNL1        0.0000
     18 C         142.9576  141.7730  168.1738 C.ar    1  UNL1        0.0015
     19 O         143.6413  140.9841  162.5644 O.2     1  UNL1       -0.2747
     20 C         143.2134  142.3741  162.1970 C.2     1  UNL1        0.2285
     21 N         141.9943  142.9757  162.8308 N.am    1  UNL1       -0.2795
     22 H         141.7134  143.8879  162.5897 H       1  UNL1        0.1516
     23 C         144.0046  143.1624  161.1958 C.3     1  UNL1        0.1114
     24 C         143.7718  142.9589  159.7279 C.ar    1  UNL1       -0.0114
     25 C         144.9072  142.5471  158.8385 C.ar    1  UNL1        0.0077
     26 C         144.6743  142.3436  157.3706 C.ar    1  UNL1        0.0582
     27 CL        145.8097  141.9318  156.4812 Cl      1  UNL1       -0.0822
     28 C         143.3061  142.5520  156.7924 C.ar    1  UNL1        0.0228
     29 C         142.1706  142.9638  157.6819 C.ar    1  UNL1        0.0582
     30 CL        140.8023  143.1722  157.1037 Cl      1  UNL1       -0.0822
     31 C         142.4035  143.1673  159.1497 C.ar    1  UNL1        0.0077
     32 C         138.2543  139.5978  163.1289 C.3     1  UNL1        0.2017
     33 C         138.7826  138.5525  162.1916 C.3     1  UNL1        0.4160
     34 F         139.3109  137.5073  161.2544 F       1  UNL1       -0.1682
     35 F         139.8102  137.8222  163.0044 F       1  UNL1       -0.1682
     36 F         137.8553  139.0446  161.1202 F       1  UNL1       -0.1682
@<TRIPOS>BOND
     1    19    20    2
     2    20    23    1
     3    23    24    1
     4    24    25   ar
     5    25    26   ar
     6    26    27    1
     7    26    28   ar
     8    28    29   ar
     9    29    30    1
    10    29    31   ar
    11    20    21   am
    12     1    21    1
    13     1     2    1
    14     2     3    2
    15     3    13    1
    16    13    14   ar
    17    14    15   ar
    18    15    16   ar
    19    16    17   ar
    20    17    18   ar
    21     3     4    1
    22     4     5   ar
    23     5     6   ar
    24     6     7   ar
    25     7     8   ar
    26     8     9   ar
    27     9    10    1
    28    10    32    1
    29    32    33    1
    30    33    34    1
    31    33    35    1
    32    33    36    1
    33    10    11   am
    34    11    12    2
    35    31    24   ar
    36    11     1    1
    37    18    13   ar
    38     9     4   ar
    39    21    22    1
@<TRIPOS>MOLECULE
*****
 36 39 0 0 0
SMALL
GASTEIGER

@<TRIPOS>ATOM
      1 C         142.8204  138.4158  160.4882 C.3     1  UNL1        0.2551
      2 N         142.5916  137.6228  159.2356 N.2     1  UNL1       -0.2434
      3 C         142.8605  138.0210  157.8146 C.2     1  UNL1        0.0795
      4 C         143.4245  139.3102  157.2951 C.ar    1  UNL1        0.0310
      5 C         143.5319  139.2981  155.7991 C.ar    1  UNL1        0.0027
      6 C         144.0738  140.4955  155.0764 C.ar    1  UNL1        0.0001
      7 C         144.5083  141.7051  155.8497 C.ar    1  UNL1        0.0013
      8 C         144.4009  141.7173  157.3458 C.ar    1  UNL1        0.0150
      9 C         143.8590  140.5198  158.0685 C.ar    1  UNL1        0.0556
     10 N         143.8368  140.7389  159.5523 N.am    1  UNL1       -0.2474
     11 C         143.3746  139.8025  160.6292 C.2     1  UNL1        0.2714
     12 O         143.4805  140.3215  162.0325 O.2     1  UNL1       -0.2705
     13 C         142.5203  136.9940  156.7755 C.ar    1  UNL1        0.0174
     14 C         143.5868  136.0826  156.2444 C.ar    1  UNL1        0.0015
     15 C         143.2466  135.0556  155.2054 C.ar    1  UNL1        0.0000
     16 C         141.8400  134.9400  154.6974 C.ar    1  UNL1        0.0000
     17 C         140.7736  135.8513  155.2285 C.ar    1  UNL1        0.0000
     18 C         141.1136  136.8783  156.2675 C.ar    1  UNL1        0.0015
     19 O         139.9918  138.5351  161.4805 O.2     1  UNL1       -0.2747
     20 C         141.0313  137.7910  162.2654 C.2     1  UNL1        0.2285
     21 N         142.4455  137.7314  161.7692 N.am    1  UNL1       -0.2795
     22 H         143.1277  137.2431  162.2844 H       1  UNL1        0.1516
     23 C         140.6564  137.1067  163.5464 C.3     1  UNL1        0.1114
     24 C         140.1090  137.9062  164.6916 C.ar    1  UNL1       -0.0114
     25 C         140.8138  139.1515  165.1414 C.ar    1  UNL1        0.0077
     26 C         140.2665  139.9511  166.2865 C.ar    1  UNL1        0.0582
     27 CL        140.9713  141.1964  166.7363 Cl      1  UNL1       -0.0822
     28 C         139.0144  139.5052  166.9818 C.ar    1  UNL1        0.0228
     29 C         138.3096  138.2598  166.5319 C.ar    1  UNL1        0.0582
     30 CL        137.0575  137.8139  167.2272 Cl      1  UNL1       -0.0822
     31 C         138.8569  137.4603  165.3868 C.ar    1  UNL1        0.0077
     32 C         144.3438  142.0704  160.0212 C.3     1  UNL1        0.2017
     33 C         143.3779  143.1183  160.4894 C.3     1  UNL1        0.4160
     34 F         142.4121  144.1661  160.9575 F       1  UNL1       -0.1682
     35 F         142.1875  142.9405  159.5942 F       1  UNL1       -0.1682
     36 F         144.3639  143.5627  161.5287 F       1  UNL1       -0.1682
@<TRIPOS>BOND
     1    19    20    2
     2    20    23    1
     3    23    24    1
     4    24    25   ar
     5    25    26   ar
     6    26    27    1
     7    26    28   ar
     8    28    29   ar
     9    29    30    1
    10    29    31   ar
    11    20    21   am
    12     1    21    1
    13     1     2    1
    14     2     3    2
    15     3    13    1
    16    13    14   ar
    17    14    15   ar
    18    15    16   ar
    19    16    17   ar
    20    17    18   ar
    21     3     4    1
    22     4     5   ar
    23     5     6   ar
    24     6     7   ar
    25     7     8   ar
    26     8     9   ar
    27     9    10    1
    28    10    32    1
    29    32    33    1
    30    33    34    1
    31    33    35    1
    32    33    36    1
    33    10    11   am
    34    11    12    2
    35    31    24   ar
    36    11     1    1
    37    18    13   ar
    38     9     4   ar
    39    21    22    1
@<TRIPOS>MOLECULE
*****
 36 39 0 0 0
SMALL
GASTEIGER

@<TRIPOS>ATOM
      1 C         142.7802  138.4274  160.5699 C.3     1  UNL1        0.2551
      2 N         142.5470  137.6308  159.3205 N.2     1  UNL1       -0.2434
      3 C         142.8143  138.0234  157.8977 C.2     1  UNL1        0.0795
      4 C         143.3807  139.3094  157.3728 C.ar    1  UNL1        0.0310
      5 C         143.4853  139.2918  155.8766 C.ar    1  UNL1        0.0027
      6 C         144.0290  140.4854  155.1488 C.ar    1  UNL1        0.0001
      7 C         144.4681  141.6965  155.9172 C.ar    1  UNL1        0.0013
      8 C         144.3635  141.7140  157.4134 C.ar    1  UNL1        0.0150
      9 C         143.8198  140.5205  158.1412 C.ar    1  UNL1        0.0556
     10 N         143.8009  140.7446  159.6242 N.am    1  UNL1       -0.2474
     11 C         143.3383  139.8132  160.7052 C.2     1  UNL1        0.2714
     12 O         143.4482  140.3367  162.1065 O.2     1  UNL1       -0.2705
     13 C         142.4695  136.9938  156.8628 C.ar    1  UNL1        0.0174
     14 C         141.0874  136.9482  156.2815 C.ar    1  UNL1        0.0015
     15 C         140.7426  135.9185  155.2466 C.ar    1  UNL1        0.0000
     16 C         141.7799  134.9345  154.7929 C.ar    1  UNL1        0.0000
     17 C         143.1619  134.9801  155.3741 C.ar    1  UNL1        0.0000
     18 C         143.5067  136.0097  156.4090 C.ar    1  UNL1        0.0015
     19 O         139.9657  138.6015  161.5937 O.2     1  UNL1       -0.2747
     20 C         140.9987  137.8354  162.3659 C.2     1  UNL1        0.2285
     21 N         142.4059  137.7484  161.8540 N.am    1  UNL1       -0.2795
     22 H         143.0839  137.2457  162.3608 H       1  UNL1        0.1516
     23 C         140.6244  137.1564  163.6500 C.3     1  UNL1        0.1114
     24 C         139.9915  137.9445  164.7584 C.ar    1  UNL1       -0.0114
     25 C         138.7997  137.3943  165.4841 C.ar    1  UNL1        0.0077
     26 C         138.1668  138.1824  166.5925 C.ar    1  UNL1        0.0582
     27 CL        136.9750  137.6321  167.3183 Cl      1  UNL1       -0.0822
     28 C         138.7258  139.5207  166.9750 C.ar    1  UNL1        0.0228
     29 C         139.9176  140.0710  166.2492 C.ar    1  UNL1        0.0582
     30 CL        140.4766  141.4094  166.6317 Cl      1  UNL1       -0.0822
     31 C         140.5504  139.2829  165.1409 C.ar    1  UNL1        0.0077
     32 C         144.3123  142.0765  160.0876 C.3     1  UNL1        0.2017
     33 C         143.3506  143.1258  160.5612 C.3     1  UNL1        0.4160
     34 F         142.3889  144.1750  161.0346 F       1  UNL1       -0.1682
     35 F         142.1603  142.9586  159.6638 F       1  UNL1       -0.1682
     36 F         144.3375  143.5597  161.6040 F       1  UNL1       -0.1682
@<TRIPOS>BOND
     1    19    20    2
     2    20    23    1
     3    23    24    1
     4    24    25   ar
     5    25    26   ar
     6    26    27    1
     7    26    28   ar
     8    28    29   ar
     9    29    30    1
    10    29    31   ar
    11    20    21   am
    12     1    21    1
    13     1     2    1
    14     2     3    2
    15     3    13    1
    16    13    14   ar
    17    14    15   ar
    18    15    16   ar
    19    16    17   ar
    20    17    18   ar
    21     3     4    1
    22     4     5   ar
    23     5     6   ar
    24     6     7   ar
    25     7     8   ar
    26     8     9   ar
    27     9    10    1
    28    10    32    1
    29    32    33    1
    30    33    34    1
    31    33    35    1
    32    33    36    1
    33    10    11   am
    34    11    12    2
    35    31    24   ar
    36    11     1    1
    37    18    13   ar
    38     9     4   ar
    39    21    22    1
@<TRIPOS>MOLECULE
*****
 36 39 0 0 0
SMALL
GASTEIGER

@<TRIPOS>ATOM
      1 C         143.0067  142.4001  162.1352 C.3     1  UNL1        0.2551
      2 N         143.6397  142.0414  160.8234 N.2     1  UNL1       -0.2434
      3 C         143.3536  142.6033  159.4624 C.2     1  UNL1        0.0795
      4 C         142.3640  143.6626  159.0769 C.ar    1  UNL1        0.0310
      5 C         142.3965  143.9322  157.6017 C.ar    1  UNL1        0.0027
      6 C         141.4811  144.9609  157.0070 C.ar    1  UNL1        0.0001
      7 C         140.5331  145.7200  157.8874 C.ar    1  UNL1        0.0013
      8 C         140.5006  145.4504  159.3626 C.ar    1  UNL1        0.0150
      9 C         141.4160  144.4217  159.9574 C.ar    1  UNL1        0.0556
     10 N         141.2236  144.3089  161.4407 N.am    1  UNL1       -0.2474
     11 C         141.9314  143.4092  162.4100 C.2     1  UNL1        0.2714
     12 O         141.5082  143.5354  163.8434 O.2     1  UNL1       -0.2705
     13 C         144.1643  142.0301  158.3381 C.ar    1  UNL1        0.0174
     14 C         143.6690  140.8250  157.5947 C.ar    1  UNL1        0.0015
     15 C         144.4798  140.2518  156.4704 C.ar    1  UNL1        0.0000
     16 C         145.7859  140.8836  156.0894 C.ar    1  UNL1        0.0000
     17 C         146.2811  142.0885  156.8328 C.ar    1  UNL1        0.0000
     18 C         145.4705  142.6618  157.9571 C.ar    1  UNL1        0.0015
     19 O         141.5495  139.9670  163.1134 O.2     1  UNL1       -0.2747
     20 C         142.7879  140.4340  163.8194 C.2     1  UNL1        0.2285
     21 N         143.5165  141.6505  163.3303 N.am    1  UNL1       -0.2795
     22 H         144.3293  141.9570  163.7937 H       1  UNL1        0.1516
     23 C         143.2977  139.6845  165.0145 C.3     1  UNL1        0.1114
     24 C         142.7590  139.9941  166.3799 C.ar    1  UNL1       -0.0114
     25 C         143.0109  139.0495  167.5175 C.ar    1  UNL1        0.0077
     26 C         142.4722  139.3591  168.8828 C.ar    1  UNL1        0.0582
     27 CL        142.7241  138.4145  170.0204 Cl      1  UNL1       -0.0822
     28 C         141.6817  140.6134  169.1104 C.ar    1  UNL1        0.0228
     29 C         141.4298  141.5581  167.9727 C.ar    1  UNL1        0.0582
     30 CL        140.6393  142.8124  168.2003 Cl      1  UNL1       -0.0822
     31 C         141.9685  141.2484  166.6075 C.ar    1  UNL1        0.0077
     32 C         140.1859  145.2158  162.0331 C.3     1  UNL1        0.2017
     33 C         138.8880  144.6487  162.5271 C.3     1  UNL1        0.4160
     34 F         137.5902  144.0816  163.0210 F       1  UNL1       -0.1682
     35 F         138.4867  143.6760  161.4581 F       1  UNL1       -0.1682
     36 F         138.9781  145.5097  163.7520 F       1  UNL1       -0.1682
@<TRIPOS>BOND
     1    19    20    2
     2    20    23    1
     3    23    24    1
     4    24    25   ar
     5    25    26   ar
     6    26    27    1
     7    26    28   ar
     8    28    29   ar
     9    29    30    1
    10    29    31   ar
    11    20    21   am
    12     1    21    1
    13     1     2    1
    14     2     3    2
    15     3    13    1
    16    13    14   ar
    17    14    15   ar
    18    15    16   ar
    19    16    17   ar
    20    17    18   ar
    21     3     4    1
    22     4     5   ar
    23     5     6   ar
    24     6     7   ar
    25     7     8   ar
    26     8     9   ar
    27     9    10    1
    28    10    32    1
    29    32    33    1
    30    33    34    1
    31    33    35    1
    32    33    36    1
    33    10    11   am
    34    11    12    2
    35    31    24   ar
    36    11     1    1
    37    18    13   ar
    38     9     4   ar
    39    21    22    1
@<TRIPOS>MOLECULE
*****
 36 39 0 0 0
SMALL
GASTEIGER

@<TRIPOS>ATOM
      1 C         140.7992  143.3597  158.1383 C.3     1  UNL1        0.2551
      2 N         140.1803  143.5588  159.4902 N.2     1  UNL1       -0.2434
      3 C         140.5948  142.9670  160.8047 C.2     1  UNL1        0.0795
      4 C         141.7303  142.0299  161.0922 C.ar    1  UNL1        0.0310
      5 C         141.7955  141.6786  162.5489 C.ar    1  UNL1        0.0027
      6 C         142.8623  140.7506  163.0495 C.ar    1  UNL1        0.0001
      7 C         143.8639  140.1739  162.0933 C.ar    1  UNL1        0.0013
      8 C         143.7986  140.5252  160.6366 C.ar    1  UNL1        0.0150
      9 C         142.7318  141.4532  160.1360 C.ar    1  UNL1        0.0556
     10 N         142.8452  141.6712  158.6562 N.am    1  UNL1       -0.2474
     11 C         141.9851  142.5196  157.7671 C.2     1  UNL1        0.2714
     12 O         142.3606  142.5292  156.3150 O.2     1  UNL1       -0.2705
     13 C         139.7638  143.3649  161.9884 C.ar    1  UNL1        0.0174
     14 C         140.2168  144.4817  162.8815 C.ar    1  UNL1        0.0015
     15 C         139.3859  144.8796  164.0652 C.ar    1  UNL1        0.0000
     16 C         138.1018  144.1606  164.3559 C.ar    1  UNL1        0.0000
     17 C         137.6488  143.0439  163.4629 C.ar    1  UNL1        0.0000
     18 C         138.4797  142.6460  162.2791 C.ar    1  UNL1        0.0015
     19 O         141.8218  146.0587  157.3200 O.2     1  UNL1       -0.2747
     20 C         140.6568  145.4478  156.5990 C.2     1  UNL1        0.2285
     21 N         140.1455  144.0983  157.0082 N.am    1  UNL1       -0.2795
     22 H         139.3810  143.6974  156.5350 H       1  UNL1        0.1516
     23 C         140.0032  146.1864  155.4689 C.3     1  UNL1        0.1114
     24 C         139.5044  147.5858  155.6766 C.ar    1  UNL1       -0.0114
     25 C         139.6414  148.6012  154.5811 C.ar    1  UNL1        0.0077
     26 C         139.1426  150.0005  154.7888 C.ar    1  UNL1        0.0582
     27 CL        139.2797  151.0159  153.6933 Cl      1  UNL1       -0.0822
     28 C         138.5067  150.3844  156.0919 C.ar    1  UNL1        0.0228
     29 C         138.3696  149.3689  157.1874 C.ar    1  UNL1        0.0582
     30 CL        137.7337  149.7528  158.4906 Cl      1  UNL1       -0.0822
     31 C         138.8685  147.9697  156.9798 C.ar    1  UNL1        0.0077
     32 C         143.9671  140.9445  157.9755 C.3     1  UNL1        0.2017
     33 C         145.2186  141.6809  157.5991 C.3     1  UNL1        0.4160
     34 F         146.4699  142.4173  157.2228 F       1  UNL1       -0.1682
     35 F         145.2162  142.8828  158.4966 F       1  UNL1       -0.1682
     36 F         145.5330  140.6259  156.5804 F       1  UNL1       -0.1682
@<TRIPOS>BOND
     1    19    20    2
     2    20    23    1
     3    23    24    1
     4    24    25   ar
     5    25    26   ar
     6    26    27    1
     7    26    28   ar
     8    28    29   ar
     9    29    30    1
    10    29    31   ar
    11    20    21   am
    12     1    21    1
    13     1     2    1
    14     2     3    2
    15     3    13    1
    16    13    14   ar
    17    14    15   ar
    18    15    16   ar
    19    16    17   ar
    20    17    18   ar
    21     3     4    1
    22     4     5   ar
    23     5     6   ar
    24     6     7   ar
    25     7     8   ar
    26     8     9   ar
    27     9    10    1
    28    10    32    1
    29    32    33    1
    30    33    34    1
    31    33    35    1
    32    33    36    1
    33    10    11   am
    34    11    12    2
    35    31    24   ar
    36    11     1    1
    37    18    13   ar
    38     9     4   ar
    39    21    22    1
@<TRIPOS>MOLECULE
*****
 36 39 0 0 0
SMALL
GASTEIGER

@<TRIPOS>ATOM
      1 C         141.5221  139.5767  159.9869 C.3     1  UNL1        0.2551
      2 N         141.6869  138.8150  158.7053 N.2     1  UNL1       -0.2434
      3 C         142.6429  139.0751  157.5791 C.2     1  UNL1        0.0795
      4 C         143.6704  140.1610  157.4563 C.ar    1  UNL1        0.0310
      5 C         144.4213  140.0612  156.1617 C.ar    1  UNL1        0.0027
      6 C         145.4973  141.0556  155.8403 C.ar    1  UNL1        0.0001
      7 C         145.8225  142.1497  156.8135 C.ar    1  UNL1        0.0013
      8 C         145.0715  142.2495  158.1081 C.ar    1  UNL1        0.0150
      9 C         143.9955  141.2552  158.4296 C.ar    1  UNL1        0.0556
     10 N         143.3734  141.5336  159.7658 N.am    1  UNL1       -0.2474
     11 C         142.2727  140.7866  160.4590 C.2     1  UNL1        0.2714
     12 O         141.8692  141.3200  161.8016 O.2     1  UNL1       -0.2705
     13 C         142.5607  138.1233  156.4227 C.ar    1  UNL1        0.0174
     14 C         141.7566  138.4852  155.2091 C.ar    1  UNL1        0.0015
     15 C         141.6744  137.5334  154.0527 C.ar    1  UNL1        0.0000
     16 C         142.3962  136.2197  154.1098 C.ar    1  UNL1        0.0000
     17 C         143.2002  135.8578  155.3232 C.ar    1  UNL1        0.0000
     18 C         143.2825  136.8096  156.4796 C.ar    1  UNL1        0.0015
     19 O         142.2615  137.6605  162.1736 O.2     1  UNL1       -0.2747
     20 C         140.8369  138.1022  162.0133 C.2     1  UNL1        0.2285
     21 N         140.4673  139.0602  160.9200 N.am    1  UNL1       -0.2795
     22 H         139.5323  139.3501  160.8148 H       1  UNL1        0.1516
     23 C         139.7821  137.5857  162.9463 C.3     1  UNL1        0.1114
     24 C         139.5015  138.3045  164.2327 C.ar    1  UNL1       -0.0114
     25 C         138.4741  137.7663  165.1839 C.ar    1  UNL1        0.0077
     26 C         138.1936  138.4850  166.4703 C.ar    1  UNL1        0.0582
     27 CL        137.1662  137.9469  167.4215 Cl      1  UNL1       -0.0822
     28 C         138.9404  139.7420  166.8054 C.ar    1  UNL1        0.0228
     29 C         139.9679  140.2801  165.8542 C.ar    1  UNL1        0.0582
     30 CL        140.7148  141.5371  166.1893 Cl      1  UNL1       -0.0822
     31 C         140.2484  139.5614  164.5679 C.ar    1  UNL1        0.0077
     32 C         143.9251  142.7152  160.5070 C.3     1  UNL1        0.2017
     33 C         144.7618  142.5068  161.7345 C.3     1  UNL1        0.4160
     34 F         145.5984  142.2984  162.9619 F       1  UNL1       -0.1682
     35 F         145.0955  141.0448  161.7023 F       1  UNL1       -0.1682
     36 F         144.6265  143.9617  162.0737 F       1  UNL1       -0.1682
@<TRIPOS>BOND
     1    19    20    2
     2    20    23    1
     3    23    24    1
     4    24    25   ar
     5    25    26   ar
     6    26    27    1
     7    26    28   ar
     8    28    29   ar
     9    29    30    1
    10    29    31   ar
    11    20    21   am
    12     1    21    1
    13     1     2    1
    14     2     3    2
    15     3    13    1
    16    13    14   ar
    17    14    15   ar
    18    15    16   ar
    19    16    17   ar
    20    17    18   ar
    21     3     4    1
    22     4     5   ar
    23     5     6   ar
    24     6     7   ar
    25     7     8   ar
    26     8     9   ar
    27     9    10    1
    28    10    32    1
    29    32    33    1
    30    33    34    1
    31    33    35    1
    32    33    36    1
    33    10    11   am
    34    11    12    2
    35    31    24   ar
    36    11     1    1
    37    18    13   ar
    38     9     4   ar
    39    21    22    1
