@<TRIPOS>MOLECULE
*****
 35 40 0 0 0
SMALL
GASTEIGER

@<TRIPOS>ATOM
      1 C         142.5248  142.5772  158.2266 C.3     1  UNL1        0.0948
      2 N         142.6728  141.3302  157.4063 N.3     1  UNL1       -0.2887
      3 C         143.3747  140.1347  157.9791 C.3     1  UNL1        0.1161
      4 C         143.9287  140.1863  159.3721 C.3     1  UNL1        0.0510
      5 C         143.7807  141.4333  160.1924 C.2     1  UNL1       -0.0044
      6 C         143.0788  142.6288  159.6196 C.2     1  UNL1        0.0689
      7 N         143.0848  143.7113  160.6579 N.2     1  UNL1       -0.2526
      8 C         143.7904  143.1849  161.8724 C.2     1  UNL1        0.0627
      9 C         144.0969  143.8056  163.2031 C.3     1  UNL1        0.0717
     10 C         144.8335  143.0184  164.2460 C.2     1  UNL1       -0.0198
     11 C         145.2636  141.6105  163.9583 C.2     1  UNL1       -0.0042
     12 C         144.9571  140.9898  162.6276 C.2     1  UNL1        0.0006
     13 C         144.2205  141.7770  161.5847 C.2     1  UNL1        0.0111
     14 H         143.1797  141.5922  156.5609 H       1  UNL1        0.1239
     15 C         140.0006  147.7923  154.5278 C.3     1  UNL1        0.0948
     16 C         139.7170  147.3592  155.9356 C.2     1  UNL1        0.2261
     17 O         138.7314  148.1216  156.7707 O.2     1  UNL1       -0.2749
     18 N         140.4189  146.1637  156.5084 N.am    1  UNL1       -0.2795
     19 C         141.4045  145.4014  155.6733 C.3     1  UNL1        0.0935
     20 C         142.1065  144.2058  156.2461 C.3     1  UNL1        0.0233
     21 C         141.8229  143.7727  157.6538 C.3     1  UNL1        0.0236
     22 C         140.8372  144.5352  158.4889 C.3     1  UNL1        0.0233
     23 C         140.1353  145.7307  157.9162 C.3     1  UNL1        0.0935
     24 C         143.5227  138.8875  157.1588 C.ar    1  UNL1        0.1318
     25 N         142.9462  137.5424  157.4877 N.ar    1  UNL1       -0.2298
     26 C         143.3404  136.5901  156.3979 C.ar    1  UNL1        0.0996
     27 C         144.1605  137.3467  155.3954 C.ar    1  UNL1        0.0927
     28 N         144.2732  138.7666  155.8657 N.ar    1  UNL1       -0.3386
     29 H         144.7552  139.4918  155.4064 H       1  UNL1        0.1672
     30 C         142.9780  135.1364  156.3235 C.ar    1  UNL1        0.0192
     31 C         141.8532  134.6881  155.4381 C.ar    1  UNL1        0.0015
     32 C         141.4908  133.2345  155.3638 C.ar    1  UNL1        0.0000
     33 C         142.2532  132.2291  156.1748 C.ar    1  UNL1        0.0000
     34 C         143.3780  132.6773  157.0602 C.ar    1  UNL1        0.0000
     35 C         143.7404  134.1309  157.1346 C.ar    1  UNL1        0.0015
@<TRIPOS>BOND
     1    15    16    1
     2    16    17    2
     3    16    18   am
     4    18    19    1
     5    19    20    1
     6    20    21    1
     7    21     1    1
     8     1     2    1
     9     2     3    1
    10     3    24    1
    11    24    25   ar
    12    25    26   ar
    13    26    30    1
    14    30    31   ar
    15    31    32   ar
    16    32    33   ar
    17    33    34   ar
    18    34    35   ar
    19    26    27   ar
    20    27    28   ar
    21     3     4    1
    22     4     5    1
    23     5     6    2
    24     6     7    1
    25     7     8    2
    26     8     9    1
    27     9    10    1
    28    10    11    2
    29    11    12    1
    30    12    13    2
    31    21    22    1
    32    22    23    1
    33    23    18    1
    34     6     1    1
    35    13     8    1
    36    28    24   ar
    37    13     5    1
    38    35    30   ar
    39     2    14    1
    40    28    29    1
@<TRIPOS>MOLECULE
*****
 35 40 0 0 0
SMALL
GASTEIGER

@<TRIPOS>ATOM
      1 C         141.9139  137.2178  157.2457 C.3     1  UNL1        0.0948
      2 N         140.7303  137.7672  156.5060 N.3     1  UNL1       -0.2887
      3 C         140.1199  136.9852  155.3809 C.3     1  UNL1        0.1161
      4 C         140.6932  135.6537  154.9955 C.3     1  UNL1        0.0510
      5 C         141.8768  135.1042  155.7352 C.2     1  UNL1       -0.0044
      6 C         142.4872  135.8863  156.8603 C.2     1  UNL1        0.0689
      7 N         143.6405  135.0952  157.4025 N.2     1  UNL1       -0.2526
      8 C         143.7429  133.8242  156.6125 C.2     1  UNL1        0.0627
      9 C         144.6879  132.6625  156.6984 C.3     1  UNL1        0.0717
     10 C         144.5428  131.5064  155.7537 C.2     1  UNL1       -0.0198
     11 C         143.4528  131.5120  154.7233 C.2     1  UNL1       -0.0042
     12 C         142.5079  132.6737  154.6374 C.2     1  UNL1        0.0006
     13 C         142.6529  133.8298  155.5820 C.2     1  UNL1        0.0111
     14 H         141.0167  138.6662  156.1184 H       1  UNL1        0.1239
     15 C         144.4551  139.7389  163.1140 C.3     1  UNL1        0.0948
     16 C         144.3553  140.3462  161.7460 C.2     1  UNL1        0.2261
     17 O         144.8657  141.7356  161.5032 O.2     1  UNL1       -0.2749
     18 N         143.7449  139.5641  160.6209 N.am    1  UNL1       -0.2795
     19 C         143.2344  138.1747  160.8638 C.3     1  UNL1        0.0935
     20 C         142.6240  137.3926  159.7386 C.3     1  UNL1        0.0233
     21 C         142.5242  137.9999  158.3708 C.3     1  UNL1        0.0236
     22 C         143.0347  139.3893  158.1280 C.3     1  UNL1        0.0233
     23 C         143.6451  140.1714  159.2530 C.3     1  UNL1        0.0935
     24 C         138.9362  137.5346  154.6412 C.ar    1  UNL1        0.1318
     25 N         137.8962  138.4577  155.2033 N.ar    1  UNL1       -0.2298
     26 C         136.9020  138.7510  154.1190 C.ar    1  UNL1        0.0996
     27 C         137.3277  138.0091  152.8868 C.ar    1  UNL1        0.0927
     28 N         138.5849  137.2573  153.2095 N.ar    1  UNL1       -0.3386
     29 H         139.0907  136.6828  152.5904 H       1  UNL1        0.1672
     30 C         135.6942  139.6316  154.2449 C.ar    1  UNL1        0.0192
     31 C         134.7675  139.4710  155.4134 C.ar    1  UNL1        0.0015
     32 C         133.5597  140.3515  155.5394 C.ar    1  UNL1        0.0000
     33 C         133.2787  141.3927  154.4968 C.ar    1  UNL1        0.0000
     34 C         134.2054  141.5533  153.3283 C.ar    1  UNL1        0.0000
     35 C         135.4131  140.6727  153.2024 C.ar    1  UNL1        0.0015
@<TRIPOS>BOND
     1    15    16    1
     2    16    17    2
     3    16    18   am
     4    18    19    1
     5    19    20    1
     6    20    21    1
     7    21     1    1
     8     1     2    1
     9     2     3    1
    10     3    24    1
    11    24    25   ar
    12    25    26   ar
    13    26    30    1
    14    30    31   ar
    15    31    32   ar
    16    32    33   ar
    17    33    34   ar
    18    34    35   ar
    19    26    27   ar
    20    27    28   ar
    21     3     4    1
    22     4     5    1
    23     5     6    2
    24     6     7    1
    25     7     8    2
    26     8     9    1
    27     9    10    1
    28    10    11    2
    29    11    12    1
    30    12    13    2
    31    21    22    1
    32    22    23    1
    33    23    18    1
    34     6     1    1
    35    13     8    1
    36    28    24   ar
    37    13     5    1
    38    35    30   ar
    39     2    14    1
    40    28    29    1
@<TRIPOS>MOLECULE
*****
 35 40 0 0 0
SMALL
GASTEIGER

@<TRIPOS>ATOM
      1 C         142.6696  137.0217  156.8604 C.3     1  UNL1        0.0948
      2 N         141.6137  137.2392  157.9033 N.3     1  UNL1       -0.2887
      3 C         141.3298  138.6238  158.4057 C.3     1  UNL1        0.1161
      4 C         142.1017  139.7908  157.8651 C.3     1  UNL1        0.0510
      5 C         143.1576  139.5732  156.8222 C.2     1  UNL1       -0.0044
      6 C         143.4415  138.1887  156.3198 C.2     1  UNL1        0.0689
      7 N         144.5329  138.2822  155.2951 N.2     1  UNL1       -0.2526
      8 C         144.9235  139.7245  155.1641 C.2     1  UNL1        0.0627
      9 C         145.9434  140.4143  154.3074 C.3     1  UNL1        0.0717
     10 C         146.1132  141.9021  154.3945 C.2     1  UNL1       -0.0198
     11 C         145.2632  142.7000  155.3383 C.2     1  UNL1       -0.0042
     12 C         144.2434  142.0102  156.1950 C.2     1  UNL1        0.0006
     13 C         144.0735  140.5224  156.1079 C.2     1  UNL1        0.0111
     14 H         141.8811  136.6809  158.7140 H       1  UNL1        0.1239
     15 C         144.5649  130.5154  155.7086 C.3     1  UNL1        0.0948
     16 C         143.8051  131.4834  154.8508 C.2     1  UNL1        0.2261
     17 O         143.3293  131.0669  153.4907 O.2     1  UNL1       -0.2749
     18 N         143.5212  132.8680  155.3532 N.am    1  UNL1       -0.2795
     19 C         143.9971  133.2846  156.7133 C.3     1  UNL1        0.0935
     20 C         143.7132  134.6692  157.2158 C.3     1  UNL1        0.0233
     21 C         142.9535  135.6371  156.3580 C.3     1  UNL1        0.0236
     22 C         142.4776  135.2205  154.9978 C.3     1  UNL1        0.0233
     23 C         142.7615  133.8360  154.4954 C.3     1  UNL1        0.0935
     24 C         140.2738  138.8414  159.4487 C.ar    1  UNL1        0.1318
     25 N         140.4393  138.6410  160.9260 N.ar    1  UNL1       -0.2298
     26 C         139.1349  138.9733  161.5878 C.ar    1  UNL1        0.0996
     27 C         138.1633  139.3791  160.5195 C.ar    1  UNL1        0.0927
     28 N         138.8672  139.2976  159.1975 N.ar    1  UNL1       -0.3386
     29 H         138.4748  139.5068  158.3191 H       1  UNL1        0.1672
     30 C         138.8518  138.9108  163.0596 C.ar    1  UNL1        0.0192
     31 C         139.0830  137.6353  163.8142 C.ar    1  UNL1        0.0015
     32 C         138.7999  137.5727  165.2859 C.ar    1  UNL1        0.0000
     33 C         138.2857  138.7857  166.0030 C.ar    1  UNL1        0.0000
     34 C         138.0545  140.0613  165.2483 C.ar    1  UNL1        0.0000
     35 C         138.3376  140.1238  163.7766 C.ar    1  UNL1        0.0015
@<TRIPOS>BOND
     1    15    16    1
     2    16    17    2
     3    16    18   am
     4    18    19    1
     5    19    20    1
     6    20    21    1
     7    21     1    1
     8     1     2    1
     9     2     3    1
    10     3    24    1
    11    24    25   ar
    12    25    26   ar
    13    26    30    1
    14    30    31   ar
    15    31    32   ar
    16    32    33   ar
    17    33    34   ar
    18    34    35   ar
    19    26    27   ar
    20    27    28   ar
    21     3     4    1
    22     4     5    1
    23     5     6    2
    24     6     7    1
    25     7     8    2
    26     8     9    1
    27     9    10    1
    28    10    11    2
    29    11    12    1
    30    12    13    2
    31    21    22    1
    32    22    23    1
    33    23    18    1
    34     6     1    1
    35    13     8    1
    36    28    24   ar
    37    13     5    1
    38    35    30   ar
    39     2    14    1
    40    28    29    1
@<TRIPOS>MOLECULE
*****
 35 40 0 0 0
SMALL
GASTEIGER

@<TRIPOS>ATOM
      1 C         142.5268  138.3494  157.3852 C.3     1  UNL1        0.0948
      2 N         143.7496  139.1426  157.0307 N.3     1  UNL1       -0.2887
      3 C         143.9110  140.5422  157.5456 C.3     1  UNL1        0.1161
      4 C         142.8496  141.1486  158.4149 C.3     1  UNL1        0.0510
      5 C         141.6268  140.3554  158.7694 C.2     1  UNL1       -0.0044
      6 C         141.4654  138.9558  158.2545 C.2     1  UNL1        0.0689
      7 N         140.1614  138.4208  158.7674 N.2     1  UNL1       -0.2526
      8 C         139.5168  139.4897  159.5993 C.2     1  UNL1        0.0627
      9 C         138.2221  139.5287  160.3558 C.3     1  UNL1        0.0717
     10 C         137.8332  140.7635  161.1135 C.2     1  UNL1       -0.0198
     11 C         138.7389  141.9591  161.1147 C.2     1  UNL1       -0.0042
     12 C         140.0336  141.9201  160.3582 C.2     1  UNL1        0.0006
     13 C         140.4225  140.6854  159.6005 C.2     1  UNL1        0.0111
     14 H         143.7797  139.1981  156.0127 H       1  UNL1        0.1239
     15 C         142.7011  131.6383  155.9084 C.3     1  UNL1        0.0948
     16 C         141.8812  132.7511  155.3256 C.2     1  UNL1        0.2261
     17 O         140.9000  132.4643  154.2279 O.2     1  UNL1       -0.2749
     18 N         142.0426  134.1507  155.8405 N.am    1  UNL1       -0.2795
     19 C         143.0238  134.4375  156.9381 C.3     1  UNL1        0.0935
     20 C         143.1853  135.8371  157.4531 C.3     1  UNL1        0.0233
     21 C         142.3655  136.9498  156.8703 C.3     1  UNL1        0.0236
     22 C         141.3842  136.6630  155.7726 C.3     1  UNL1        0.0233
     23 C         141.2227  135.2635  155.2577 C.3     1  UNL1        0.0935
     24 C         145.1338  141.3354  157.1911 C.ar    1  UNL1        0.1318
     25 N         146.0638  141.0579  156.0474 N.ar    1  UNL1       -0.2298
     26 C         147.1460  142.0964  156.0675 C.ar    1  UNL1        0.0996
     27 C         146.8849  143.0156  157.2237 C.ar    1  UNL1        0.0927
     28 N         145.6413  142.5453  157.9181 N.ar    1  UNL1       -0.3386
     29 H         145.2303  142.9583  158.7117 H       1  UNL1        0.1672
     30 C         148.2888  142.1977  155.1011 C.ar    1  UNL1        0.0192
     31 C         149.6041  141.5535  155.4248 C.ar    1  UNL1        0.0015
     32 C         150.7469  141.6548  154.4585 C.ar    1  UNL1        0.0000
     33 C         150.5742  142.4003  153.1684 C.ar    1  UNL1        0.0000
     34 C         149.2589  143.0446  152.8447 C.ar    1  UNL1        0.0000
     35 C         148.1161  142.9433  153.8110 C.ar    1  UNL1        0.0015
@<TRIPOS>BOND
     1    15    16    1
     2    16    17    2
     3    16    18   am
     4    18    19    1
     5    19    20    1
     6    20    21    1
     7    21     1    1
     8     1     2    1
     9     2     3    1
    10     3    24    1
    11    24    25   ar
    12    25    26   ar
    13    26    30    1
    14    30    31   ar
    15    31    32   ar
    16    32    33   ar
    17    33    34   ar
    18    34    35   ar
    19    26    27   ar
    20    27    28   ar
    21     3     4    1
    22     4     5    1
    23     5     6    2
    24     6     7    1
    25     7     8    2
    26     8     9    1
    27     9    10    1
    28    10    11    2
    29    11    12    1
    30    12    13    2
    31    21    22    1
    32    22    23    1
    33    23    18    1
    34     6     1    1
    35    13     8    1
    36    28    24   ar
    37    13     5    1
    38    35    30   ar
    39     2    14    1
    40    28    29    1
@<TRIPOS>MOLECULE
*****
 35 40 0 0 0
SMALL
GASTEIGER

@<TRIPOS>ATOM
      1 C         141.3732  140.0009  160.2413 C.3     1  UNL1        0.0948
      2 N         141.8639  138.7835  159.5154 N.3     1  UNL1       -0.2887
      3 C         142.4371  138.9135  158.1354 C.3     1  UNL1        0.1161
      4 C         142.5196  140.2609  157.4812 C.3     1  UNL1        0.0510
      5 C         142.0288  141.4783  158.2072 C.2     1  UNL1       -0.0044
      6 C         141.4556  141.3483  159.5872 C.2     1  UNL1        0.0689
      7 N         141.0542  142.7165  160.0531 N.2     1  UNL1       -0.2526
      8 C         141.3794  143.6920  158.9610 C.2     1  UNL1        0.0627
      9 C         141.2048  145.1782  158.8581 C.3     1  UNL1        0.0717
     10 C         141.6326  145.8992  157.6142 C.2     1  UNL1       -0.0198
     11 C         142.2349  145.1339  156.4733 C.2     1  UNL1       -0.0042
     12 C         142.4095  143.6477  156.5763 C.2     1  UNL1        0.0006
     13 C         141.9817  142.9267  157.8202 C.2     1  UNL1        0.0111
     14 H         141.0732  138.1429  159.4467 H       1  UNL1        0.1239
     15 C         139.8631  139.9620  166.9472 C.3     1  UNL1        0.0948
     16 C         139.0802  139.4810  165.7615 C.2     1  UNL1        0.2261
     17 O         137.7242  138.8701  165.9559 O.2     1  UNL1       -0.2749
     18 N         139.6534  139.6110  164.3815 N.am    1  UNL1       -0.2795
     19 C         141.0095  140.2220  164.1871 C.3     1  UNL1        0.0935
     20 C         141.5828  140.3520  162.8070 C.3     1  UNL1        0.0233
     21 C         140.8000  139.8710  161.6214 C.3     1  UNL1        0.0236
     22 C         139.4438  139.2600  161.8158 C.3     1  UNL1        0.0233
     23 C         138.8706  139.1300  163.1958 C.3     1  UNL1        0.0935
     24 C         142.9279  137.6960  157.4093 C.ar    1  UNL1        0.1318
     25 N         142.7281  136.2729  157.8392 N.ar    1  UNL1       -0.2298
     26 C         143.3814  135.3854  156.8216 C.ar    1  UNL1        0.0996
     27 C         143.9849  136.2599  155.7629 C.ar    1  UNL1        0.0927
     28 N         143.7047  137.6880  156.1261 N.ar    1  UNL1       -0.3386
     29 H         143.9818  138.4809  155.6125 H       1  UNL1        0.1672
     30 C         143.4237  133.8863  156.8566 C.ar    1  UNL1        0.0192
     31 C         144.5029  133.1842  157.6262 C.ar    1  UNL1        0.0015
     32 C         144.5452  131.6853  157.6613 C.ar    1  UNL1        0.0000
     33 C         143.5083  130.8884  156.9266 C.ar    1  UNL1        0.0000
     34 C         142.4291  131.5904  156.1570 C.ar    1  UNL1        0.0000
     35 C         142.3868  133.0894  156.1219 C.ar    1  UNL1        0.0015
@<TRIPOS>BOND
     1    15    16    1
     2    16    17    2
     3    16    18   am
     4    18    19    1
     5    19    20    1
     6    20    21    1
     7    21     1    1
     8     1     2    1
     9     2     3    1
    10     3    24    1
    11    24    25   ar
    12    25    26   ar
    13    26    30    1
    14    30    31   ar
    15    31    32   ar
    16    32    33   ar
    17    33    34   ar
    18    34    35   ar
    19    26    27   ar
    20    27    28   ar
    21     3     4    1
    22     4     5    1
    23     5     6    2
    24     6     7    1
    25     7     8    2
    26     8     9    1
    27     9    10    1
    28    10    11    2
    29    11    12    1
    30    12    13    2
    31    21    22    1
    32    22    23    1
    33    23    18    1
    34     6     1    1
    35    13     8    1
    36    28    24   ar
    37    13     5    1
    38    35    30   ar
    39     2    14    1
    40    28    29    1
@<TRIPOS>MOLECULE
*****
 35 40 0 0 0
SMALL
GASTEIGER

@<TRIPOS>ATOM
      1 C         141.0572  139.5659  159.1093 C.3     1  UNL1        0.0948
      2 N         140.5508  139.3455  160.5039 N.3     1  UNL1       -0.2887
      3 C         140.2792  140.5193  161.3974 C.3     1  UNL1        0.1161
      4 C         140.5140  141.9135  160.8963 C.3     1  UNL1        0.0510
      5 C         141.0204  142.1339  159.5017 C.2     1  UNL1       -0.0044
      6 C         141.2920  140.9601  158.6082 C.2     1  UNL1        0.0689
      7 N         141.7830  141.4839  157.2912 N.2     1  UNL1       -0.2526
      8 C         141.8147  142.9815  157.3707 C.2     1  UNL1        0.0627
      9 C         142.2119  144.0312  156.3756 C.3     1  UNL1        0.0717
     10 C         142.1379  145.4826  156.7467 C.2     1  UNL1       -0.0198
     11 C         141.6666  145.8844  158.1129 C.2     1  UNL1       -0.0042
     12 C         141.2694  144.8346  159.1080 C.2     1  UNL1        0.0006
     13 C         141.3435  143.3832  158.7369 C.2     1  UNL1        0.0111
     14 H         141.2425  138.7666  160.9803 H       1  UNL1        0.1239
     15 C         143.4140  134.0882  155.6901 C.3     1  UNL1        0.0948
     16 C         142.1436  134.8705  155.5353 C.2     1  UNL1        0.2261
     17 O         141.1448  134.4790  154.4869 O.2     1  UNL1       -0.2749
     18 N         141.8720  136.0444  156.4288 N.am    1  UNL1       -0.2795
     19 C         142.8708  136.4359  157.4771 C.3     1  UNL1        0.0935
     20 C         142.5992  137.6098  158.3706 C.3     1  UNL1        0.0233
     21 C         141.3289  138.3920  158.2158 C.3     1  UNL1        0.0236
     22 C         140.3300  138.0005  157.1674 C.3     1  UNL1        0.0233
     23 C         140.6015  136.8267  156.2739 C.3     1  UNL1        0.0935
     24 C         139.7728  140.2990  162.7921 C.ar    1  UNL1        0.1318
     25 N         140.3137  140.9364  164.0374 N.ar    1  UNL1       -0.2298
     26 C         139.5118  140.4339  165.2013 C.ar    1  UNL1        0.0996
     27 C         138.4752  139.4859  164.6751 C.ar    1  UNL1        0.0927
     28 N         138.6365  139.4025  163.1862 N.ar    1  UNL1       -0.3386
     29 H         138.0922  138.8555  162.5749 H       1  UNL1        0.1672
     30 C         139.7114  140.8129  166.6388 C.ar    1  UNL1        0.0192
     31 C         140.3522  142.1238  166.9868 C.ar    1  UNL1        0.0015
     32 C         140.5519  142.5028  168.4243 C.ar    1  UNL1        0.0000
     33 C         140.1107  141.5710  169.5138 C.ar    1  UNL1        0.0000
     34 C         139.4699  140.2602  169.1658 C.ar    1  UNL1        0.0000
     35 C         139.2703  139.8811  167.7284 C.ar    1  UNL1        0.0015
@<TRIPOS>BOND
     1    15    16    1
     2    16    17    2
     3    16    18   am
     4    18    19    1
     5    19    20    1
     6    20    21    1
     7    21     1    1
     8     1     2    1
     9     2     3    1
    10     3    24    1
    11    24    25   ar
    12    25    26   ar
    13    26    30    1
    14    30    31   ar
    15    31    32   ar
    16    32    33   ar
    17    33    34   ar
    18    34    35   ar
    19    26    27   ar
    20    27    28   ar
    21     3     4    1
    22     4     5    1
    23     5     6    2
    24     6     7    1
    25     7     8    2
    26     8     9    1
    27     9    10    1
    28    10    11    2
    29    11    12    1
    30    12    13    2
    31    21    22    1
    32    22    23    1
    33    23    18    1
    34     6     1    1
    35    13     8    1
    36    28    24   ar
    37    13     5    1
    38    35    30   ar
    39     2    14    1
    40    28    29    1
@<TRIPOS>MOLECULE
*****
 35 40 0 0 0
SMALL
GASTEIGER

@<TRIPOS>ATOM
      1 C         139.5554  139.1561  158.7244 C.3     1  UNL1        0.0948
      2 N         140.6725  138.2258  158.3546 N.3     1  UNL1       -0.2887
      3 C         140.9477  137.9206  156.9120 C.3     1  UNL1        0.1161
      4 C         140.1059  138.5456  155.8392 C.3     1  UNL1        0.0510
      5 C         138.9888  139.4758  156.2091 C.2     1  UNL1       -0.0044
      6 C         138.7136  139.7811  157.6517 C.2     1  UNL1        0.0689
      7 N         137.5530  140.7294  157.7115 N.2     1  UNL1       -0.2526
      8 C         137.1109  141.0103  156.3059 C.2     1  UNL1        0.0627
      9 C         136.0149  141.8714  155.7515 C.3     1  UNL1        0.0717
     10 C         135.8064  141.9577  154.2686 C.2     1  UNL1       -0.0198
     11 C         136.6939  141.1829  153.3401 C.2     1  UNL1       -0.0042
     12 C         137.7898  140.3218  153.8944 C.2     1  UNL1        0.0006
     13 C         137.9983  140.2355  155.3773 C.2     1  UNL1        0.0111
     14 H         140.4776  137.3352  158.8120 H       1  UNL1        0.1239
     15 C         138.2022  139.2597  165.4630 C.3     1  UNL1        0.0948
     16 C         138.4545  140.3772  164.4947 C.2     1  UNL1        0.2261
     17 O         138.4316  141.8001  164.9691 O.2     1  UNL1       -0.2749
     18 N         138.7297  140.0720  163.0521 N.am    1  UNL1       -0.2795
     19 C         138.7527  138.6492  162.5778 C.3     1  UNL1        0.0935
     20 C         139.0279  138.3438  161.1351 C.3     1  UNL1        0.0233
     21 C         139.2802  139.4613  160.1670 C.3     1  UNL1        0.0236
     22 C         139.2573  140.8842  160.6414 C.3     1  UNL1        0.0233
     23 C         138.9820  141.1895  162.0839 C.3     1  UNL1        0.0935
     24 C         142.0648  136.9902  156.5421 C.ar    1  UNL1        0.1318
     25 N         142.1562  135.5364  156.8997 N.ar    1  UNL1       -0.2298
     26 C         143.4344  134.9981  156.3283 C.ar    1  UNL1        0.0996
     27 C         144.1329  136.1193  155.6176 C.ar    1  UNL1        0.0927
     28 N         143.2864  137.3505  155.7497 N.ar    1  UNL1       -0.3386
     29 H         143.4958  138.2390  155.3811 H       1  UNL1        0.1672
     30 C         143.9276  133.5864  156.4468 C.ar    1  UNL1        0.0192
     31 C         143.7777  132.6402  155.2925 C.ar    1  UNL1        0.0015
     32 C         144.2708  131.2286  155.4110 C.ar    1  UNL1        0.0000
     33 C         144.9138  130.7631  156.6838 C.ar    1  UNL1        0.0000
     34 C         145.0636  131.7093  157.8380 C.ar    1  UNL1        0.0000
     35 C         144.5705  133.1209  157.7195 C.ar    1  UNL1        0.0015
@<TRIPOS>BOND
     1    15    16    1
     2    16    17    2
     3    16    18   am
     4    18    19    1
     5    19    20    1
     6    20    21    1
     7    21     1    1
     8     1     2    1
     9     2     3    1
    10     3    24    1
    11    24    25   ar
    12    25    26   ar
    13    26    30    1
    14    30    31   ar
    15    31    32   ar
    16    32    33   ar
    17    33    34   ar
    18    34    35   ar
    19    26    27   ar
    20    27    28   ar
    21     3     4    1
    22     4     5    1
    23     5     6    2
    24     6     7    1
    25     7     8    2
    26     8     9    1
    27     9    10    1
    28    10    11    2
    29    11    12    1
    30    12    13    2
    31    21    22    1
    32    22    23    1
    33    23    18    1
    34     6     1    1
    35    13     8    1
    36    28    24   ar
    37    13     5    1
    38    35    30   ar
    39     2    14    1
    40    28    29    1
@<TRIPOS>MOLECULE
*****
 35 40 0 0 0
SMALL
GASTEIGER

@<TRIPOS>ATOM
      1 C         142.8984  136.9255  155.7520 C.3     1  UNL1        0.0948
      2 N         144.0355  137.8918  155.9039 N.3     1  UNL1       -0.2887
      3 C         143.8070  139.3586  155.6888 C.3     1  UNL1        0.1161
      4 C         142.4413  139.8591  155.3218 C.3     1  UNL1        0.0510
      5 C         141.3042  138.8927  155.1699 C.2     1  UNL1       -0.0044
      6 C         141.5327  137.4259  155.3850 C.2     1  UNL1        0.0689
      7 N         140.2291  136.7168  155.1665 N.2     1  UNL1       -0.2526
      8 C         139.1949  137.7454  154.8164 C.2     1  UNL1        0.0627
      9 C         137.7340  137.6312  154.4960 C.3     1  UNL1        0.0717
     10 C         136.9376  138.8617  154.1777 C.2     1  UNL1       -0.0198
     11 C         137.6021  140.2065  154.1798 C.2     1  UNL1       -0.0042
     12 C         139.0630  140.3207  154.5002 C.2     1  UNL1        0.0006
     13 C         139.8594  139.0902  154.8185 C.2     1  UNL1        0.0111
     14 H         144.7557  137.6057  155.2407 H       1  UNL1        0.1239
     15 C         143.6982  130.1045  155.4604 C.3     1  UNL1        0.0948
     16 C         143.8124  131.0583  156.6125 C.2     1  UNL1        0.2261
     17 O         144.1552  130.5452  157.9797 O.2     1  UNL1       -0.2749
     18 N         143.5839  132.5251  156.3974 N.am    1  UNL1       -0.2795
     19 C         143.2412  133.0381  155.0302 C.3     1  UNL1        0.0935
     20 C         143.0127  134.5050  154.8150 C.3     1  UNL1        0.0233
     21 C         143.1269  135.4587  155.9671 C.3     1  UNL1        0.0236
     22 C         143.4696  134.9456  157.3344 C.3     1  UNL1        0.0233
     23 C         143.6981  133.4788  157.5495 C.3     1  UNL1        0.0935
     24 C         144.9441  140.3251  155.8407 C.ar    1  UNL1        0.1318
     25 N         146.0921  140.4921  154.8899 N.ar    1  UNL1       -0.2298
     26 C         146.9904  141.5644  155.4316 C.ar    1  UNL1        0.0996
     27 C         146.3975  142.0600  156.7172 C.ar    1  UNL1        0.0927
     28 N         145.1328  141.2940  156.9701 N.ar    1  UNL1       -0.3386
     29 H         144.5321  141.4074  157.7418 H       1  UNL1        0.1672
     30 C         148.2588  142.0549  154.7987 C.ar    1  UNL1        0.0192
     31 C         149.5843  141.5489  155.2856 C.ar    1  UNL1        0.0015
     32 C         150.8527  142.0394  154.6528 C.ar    1  UNL1        0.0000
     33 C         150.7957  143.0358  153.5331 C.ar    1  UNL1        0.0000
     34 C         149.4702  143.5418  153.0462 C.ar    1  UNL1        0.0000
     35 C         148.2018  143.0514  153.6790 C.ar    1  UNL1        0.0015
@<TRIPOS>BOND
     1    15    16    1
     2    16    17    2
     3    16    18   am
     4    18    19    1
     5    19    20    1
     6    20    21    1
     7    21     1    1
     8     1     2    1
     9     2     3    1
    10     3    24    1
    11    24    25   ar
    12    25    26   ar
    13    26    30    1
    14    30    31   ar
    15    31    32   ar
    16    32    33   ar
    17    33    34   ar
    18    34    35   ar
    19    26    27   ar
    20    27    28   ar
    21     3     4    1
    22     4     5    1
    23     5     6    2
    24     6     7    1
    25     7     8    2
    26     8     9    1
    27     9    10    1
    28    10    11    2
    29    11    12    1
    30    12    13    2
    31    21    22    1
    32    22    23    1
    33    23    18    1
    34     6     1    1
    35    13     8    1
    36    28    24   ar
    37    13     5    1
    38    35    30   ar
    39     2    14    1
    40    28    29    1
@<TRIPOS>MOLECULE
*****
 35 40 0 0 0
SMALL
GASTEIGER

@<TRIPOS>ATOM
      1 C         143.9290  140.3531  157.6730 C.3     1  UNL1        0.0948
      2 N         143.3990  138.9688  157.4437 N.3     1  UNL1       -0.2887
      3 C         143.7590  138.2259  156.1913 C.3     1  UNL1        0.1161
      4 C         144.6488  138.8673  155.1682 C.3     1  UNL1        0.0510
      5 C         145.1788  140.2517  155.3975 C.2     1  UNL1       -0.0044
      6 C         144.8189  140.9946  156.6500 C.2     1  UNL1        0.0689
      7 N         145.4873  142.3366  156.6011 N.2     1  UNL1       -0.2526
      8 C         146.2603  142.4230  155.3185 C.2     1  UNL1        0.0627
      9 C         147.1131  143.5086  154.7319 C.3     1  UNL1        0.0717
     10 C         147.7753  143.3056  153.4014 C.2     1  UNL1       -0.0198
     11 C         147.5846  142.0171  152.6575 C.2     1  UNL1       -0.0042
     12 C         146.7318  140.9315  153.2442 C.2     1  UNL1        0.0006
     13 C         146.0696  141.1345  154.5747 C.2     1  UNL1        0.0111
     14 H         142.3815  139.0359  157.4641 H       1  UNL1        0.1239
     15 C         141.8785  144.6918  162.5946 C.3     1  UNL1        0.0948
     16 C         142.4894  143.3246  162.6828 C.2     1  UNL1        0.2261
     17 O         142.7403  142.7004  164.0234 O.2     1  UNL1       -0.2749
     18 N         142.8493  142.5817  161.4304 N.am    1  UNL1       -0.2795
     19 C         142.5984  143.2060  160.0897 C.3     1  UNL1        0.0935
     20 C         142.9583  142.4631  158.8372 C.3     1  UNL1        0.0233
     21 C         143.5691  141.0960  158.9255 C.3     1  UNL1        0.0236
     22 C         143.8200  140.4718  160.2662 C.3     1  UNL1        0.0233
     23 C         143.4602  141.2146  161.5186 C.3     1  UNL1        0.0935
     24 C         143.2290  136.8414  155.9619 C.ar    1  UNL1        0.1318
     25 N         144.0503  135.6191  155.6768 N.ar    1  UNL1       -0.2298
     26 C         143.1136  134.4585  155.5161 C.ar    1  UNL1        0.0996
     27 C         141.7135  134.9636  155.7018 C.ar    1  UNL1        0.0927
     28 N         141.7848  136.4364  155.9773 N.ar    1  UNL1       -0.3386
     29 H         141.0183  137.0325  156.1398 H       1  UNL1        0.1672
     30 C         143.5079  133.0415  155.2213 C.ar    1  UNL1        0.0192
     31 C         142.9320  132.3351  154.0300 C.ar    1  UNL1        0.0015
     32 C         143.3262  130.9182  153.7352 C.ar    1  UNL1        0.0000
     33 C         144.2965  130.2077  154.6318 C.ar    1  UNL1        0.0000
     34 C         144.8724  130.9142  155.8231 C.ar    1  UNL1        0.0000
     35 C         144.4782  132.3310  156.1179 C.ar    1  UNL1        0.0015
@<TRIPOS>BOND
     1    15    16    1
     2    16    17    2
     3    16    18   am
     4    18    19    1
     5    19    20    1
     6    20    21    1
     7    21     1    1
     8     1     2    1
     9     2     3    1
    10     3    24    1
    11    24    25   ar
    12    25    26   ar
    13    26    30    1
    14    30    31   ar
    15    31    32   ar
    16    32    33   ar
    17    33    34   ar
    18    34    35   ar
    19    26    27   ar
    20    27    28   ar
    21     3     4    1
    22     4     5    1
    23     5     6    2
    24     6     7    1
    25     7     8    2
    26     8     9    1
    27     9    10    1
    28    10    11    2
    29    11    12    1
    30    12    13    2
    31    21    22    1
    32    22    23    1
    33    23    18    1
    34     6     1    1
    35    13     8    1
    36    28    24   ar
    37    13     5    1
    38    35    30   ar
    39     2    14    1
    40    28    29    1
