@<TRIPOS>MOLECULE
*****
 21 23 0 0 0
SMALL
GASTEIGER

@<TRIPOS>ATOM
      1 N         141.0531  141.4137  166.9873 N.3     1  UNL1       -0.2700
      2 C         141.3752  142.2065  168.2193 C.3     1  UNL1        0.0628
      3 C         140.3798  143.1897  168.7599 C.3     1  UNL1        0.0481
      4 C         140.7018  143.9826  169.9918 C.3     1  UNL1        0.1435
      5 O         142.0193  143.7922  170.6831 O.3     1  UNL1       -0.3537
      6 C         143.0148  142.8089  170.1424 C.3     1  UNL1        0.1435
      7 C         142.6927  142.0161  168.9105 C.3     1  UNL1        0.0481
      8 C         139.9002  140.4541  166.9931 C.3     1  UNL1        0.0748
      9 C         139.1695  139.9464  165.7854 C.3     1  UNL1        0.0344
     10 C         138.0932  139.0123  166.2535 C.3     1  UNL1        0.0700
     11 N         138.1587  138.9427  167.7504 N.3     1  UNL1       -0.2963
     12 C         139.2754  139.8338  168.2075 C.3     1  UNL1        0.0847
     13 H         138.3391  137.9829  168.0448 H       1  UNL1        0.1233
     14 C         141.8839  141.5804  165.7496 C.3     1  UNL1        0.0988
     15 C         144.4630  142.9376  165.0379 C.3     1  UNL1        0.0307
     16 C         143.1553  143.5603  164.6479 C.ar    1  UNL1       -0.0245
     17 C         143.1371  144.8615  163.9020 C.ar    1  UNL1       -0.0045
     18 C         141.8293  145.4842  163.5120 C.ar    1  UNL1       -0.0003
     19 C         140.5398  144.8056  163.8678 C.ar    1  UNL1       -0.0003
     20 C         140.5581  143.5044  164.6136 C.ar    1  UNL1       -0.0032
     21 C         141.8658  142.8817  165.0037 C.ar    1  UNL1       -0.0101
@<TRIPOS>BOND
     1    15    16    1
     2    16    17   ar
     3    17    18   ar
     4    18    19   ar
     5    19    20   ar
     6    20    21   ar
     7    21    14    1
     8    14     1    1
     9     1     2    1
    10     2     3    1
    11     3     4    1
    12     4     5    1
    13     5     6    1
    14     6     7    1
    15     8     1    1
    16     8     9    1
    17     9    10    1
    18    10    11    1
    19    11    12    1
    20    21    16   ar
    21     7     2    1
    22    12     8    1
    23    11    13    1
@<TRIPOS>MOLECULE
*****
 21 23 0 0 0
SMALL
GASTEIGER

@<TRIPOS>ATOM
      1 N         140.9211  142.0210  166.4945 N.3     1  UNL1       -0.2700
      2 C         141.2882  142.4890  167.8716 C.3     1  UNL1        0.0628
      3 C         140.3025  143.2751  168.6842 C.3     1  UNL1        0.0481
      4 C         140.6695  143.7431  170.0612 C.3     1  UNL1        0.1435
      5 O         142.0224  143.4250  170.6256 O.3     1  UNL1       -0.3537
      6 C         143.0081  142.6389  169.8130 C.3     1  UNL1        0.1435
      7 C         142.6411  142.1709  168.4360 C.3     1  UNL1        0.0481
      8 C         139.8181  141.0211  166.3115 C.3     1  UNL1        0.0748
      9 C         139.5401  139.8429  167.1973 C.3     1  UNL1        0.0344
     10 C         138.3496  139.1174  166.6437 C.3     1  UNL1        0.0700
     11 N         137.8919  139.8472  165.4158 N.3     1  UNL1       -0.2963
     12 C         138.7994  141.0237  165.2104 C.3     1  UNL1        0.0847
     13 H         136.9319  140.1683  165.5416 H       1  UNL1        0.1233
     14 C         141.6570  142.5530  165.3006 C.3     1  UNL1        0.0988
     15 C         143.9539  144.2733  164.4264 C.3     1  UNL1        0.0307
     16 C         144.0959  142.7801  164.4345 C.ar    1  UNL1       -0.0245
     17 C         145.3863  142.1470  164.0055 C.ar    1  UNL1       -0.0045
     18 C         145.5282  140.6538  164.0137 C.ar    1  UNL1       -0.0003
     19 C         144.3798  139.7936  164.4508 C.ar    1  UNL1       -0.0003
     20 C         143.0894  140.4267  164.8797 C.ar    1  UNL1       -0.0032
     21 C         142.9474  141.9199  164.8716 C.ar    1  UNL1       -0.0101
@<TRIPOS>BOND
     1    15    16    1
     2    16    17   ar
     3    17    18   ar
     4    18    19   ar
     5    19    20   ar
     6    20    21   ar
     7    21    14    1
     8    14     1    1
     9     1     2    1
    10     2     3    1
    11     3     4    1
    12     4     5    1
    13     5     6    1
    14     6     7    1
    15     8     1    1
    16     8     9    1
    17     9    10    1
    18    10    11    1
    19    11    12    1
    20    21    16   ar
    21     7     2    1
    22    12     8    1
    23    11    13    1
@<TRIPOS>MOLECULE
*****
 21 23 0 0 0
SMALL
GASTEIGER

@<TRIPOS>ATOM
      1 N         140.8520  142.0095  167.3251 N.3     1  UNL1       -0.2700
      2 C         140.8028  142.8897  166.1114 C.3     1  UNL1        0.0628
      3 C         141.9804  142.9556  165.1846 C.3     1  UNL1        0.0481
      4 C         141.9312  143.8357  163.9709 C.3     1  UNL1        0.1435
      5 O         140.7045  144.6498  163.6841 O.3     1  UNL1       -0.3537
      6 C         139.5269  144.5838  164.6109 C.3     1  UNL1        0.1435
      7 C         139.5760  143.7037  165.8245 C.3     1  UNL1        0.0481
      8 C         141.6556  142.4258  168.5213 C.3     1  UNL1        0.0748
      9 C         143.0969  142.0959  168.7735 C.3     1  UNL1        0.0344
     10 C         143.4911  142.7113  170.0834 C.3     1  UNL1        0.0700
     11 N         142.2933  143.4216  170.6408 N.3     1  UNL1       -0.2963
     12 C         141.1589  143.2451  169.6754 C.3     1  UNL1        0.0847
     13 H         142.5007  144.4139  170.7536 H       1  UNL1        0.1233
     14 C         140.0976  140.7131  167.3425 C.3     1  UNL1        0.0988
     15 C         137.9815  139.0951  165.9627 C.3     1  UNL1        0.0307
     16 C         139.4313  138.7958  165.7208 C.ar    1  UNL1       -0.0245
     17 C         139.8230  137.6876  164.7890 C.ar    1  UNL1       -0.0045
     18 C         141.2728  137.3883  164.5471 C.ar    1  UNL1       -0.0003
     19 C         142.3309  138.1973  165.2370 C.ar    1  UNL1       -0.0003
     20 C         141.9391  139.3056  166.1688 C.ar    1  UNL1       -0.0032
     21 C         140.4893  139.6048  166.4107 C.ar    1  UNL1       -0.0101
@<TRIPOS>BOND
     1    15    16    1
     2    16    17   ar
     3    17    18   ar
     4    18    19   ar
     5    19    20   ar
     6    20    21   ar
     7    21    14    1
     8    14     1    1
     9     1     2    1
    10     2     3    1
    11     3     4    1
    12     4     5    1
    13     5     6    1
    14     6     7    1
    15     8     1    1
    16     8     9    1
    17     9    10    1
    18    10    11    1
    19    11    12    1
    20    21    16   ar
    21     7     2    1
    22    12     8    1
    23    11    13    1
@<TRIPOS>MOLECULE
*****
 21 23 0 0 0
SMALL
GASTEIGER

@<TRIPOS>ATOM
      1 N         141.2558  142.1575  166.3527 N.3     1  UNL1       -0.2700
      2 C         141.5753  142.4585  167.7871 C.3     1  UNL1        0.0628
      3 C         140.5129  143.0064  168.6932 C.3     1  UNL1        0.0481
      4 C         140.8324  143.3074  170.1275 C.3     1  UNL1        0.1435
      5 O         142.2144  143.0604  170.6557 O.3     1  UNL1       -0.3537
      6 C         143.2769  142.5125  169.7496 C.3     1  UNL1        0.1435
      7 C         142.9573  142.2115  168.3153 C.3     1  UNL1        0.0481
      8 C         140.7107  143.2357  165.4636 C.3     1  UNL1        0.0748
      9 C         139.2727  143.6493  165.3592 C.3     1  UNL1        0.0344
     10 C         139.1812  144.7588  164.3539 C.3     1  UNL1        0.0700
     11 N         140.5628  145.0310  163.8370 N.3     1  UNL1       -0.2963
     12 C         141.5081  144.0897  164.5229 C.3     1  UNL1        0.0847
     13 H         140.8252  145.9952  164.0416 H       1  UNL1        0.1233
     14 C         141.4812  140.7785  165.8075 C.3     1  UNL1        0.0988
     15 C         141.5633  138.3811  164.0059 C.3     1  UNL1        0.0307
     16 C         140.4213  138.5625  164.9614 C.ar    1  UNL1       -0.0245
     17 C         139.3204  137.5452  165.0160 C.ar    1  UNL1       -0.0045
     18 C         138.1784  137.7265  165.9715 C.ar    1  UNL1       -0.0003
     19 C         138.1373  138.9252  166.8723 C.ar    1  UNL1       -0.0003
     20 C         139.2382  139.9425  166.8176 C.ar    1  UNL1       -0.0032
     21 C         140.3802  139.7611  165.8622 C.ar    1  UNL1       -0.0101
@<TRIPOS>BOND
     1    15    16    1
     2    16    17   ar
     3    17    18   ar
     4    18    19   ar
     5    19    20   ar
     6    20    21   ar
     7    21    14    1
     8    14     1    1
     9     1     2    1
    10     2     3    1
    11     3     4    1
    12     4     5    1
    13     5     6    1
    14     6     7    1
    15     8     1    1
    16     8     9    1
    17     9    10    1
    18    10    11    1
    19    11    12    1
    20    21    16   ar
    21     7     2    1
    22    12     8    1
    23    11    13    1
@<TRIPOS>MOLECULE
*****
 21 23 0 0 0
SMALL
GASTEIGER

@<TRIPOS>ATOM
      1 N         141.6889  141.7643  166.9996 N.3     1  UNL1       -0.2700
      2 C         142.8218  141.5986  166.0305 C.3     1  UNL1        0.0628
      3 C         143.1764  140.2344  165.5174 C.3     1  UNL1        0.0481
      4 C         144.3093  140.0687  164.5484 C.3     1  UNL1        0.1435
      5 O         145.0876  141.2671  164.0925 O.3     1  UNL1       -0.3537
      6 C         144.7330  142.6313  164.6056 C.3     1  UNL1        0.1435
      7 C         143.6001  142.7970  165.5746 C.3     1  UNL1        0.0481
      8 C         141.9465  142.3291  168.3651 C.3     1  UNL1        0.0748
      9 C         143.2419  142.2593  169.1181 C.3     1  UNL1        0.0344
     10 C         143.0500  142.9499  170.4358 C.3     1  UNL1        0.0700
     11 N         141.6359  143.4465  170.4971 N.3     1  UNL1       -0.2963
     12 C         140.9539  143.0628  169.2174 C.3     1  UNL1        0.0847
     13 H         141.6296  144.4611  170.6020 H       1  UNL1        0.1233
     14 C         140.2984  141.3652  166.6031 C.3     1  UNL1        0.0988
     15 C         138.1515  140.1930  164.8661 C.3     1  UNL1        0.0307
     16 C         138.4159  141.6693  164.8385 C.ar    1  UNL1       -0.0245
     17 C         137.6069  142.5595  163.9424 C.ar    1  UNL1       -0.0045
     18 C         137.8712  144.0358  163.9149 C.ar    1  UNL1       -0.0003
     19 C         138.9446  144.6218  164.7834 C.ar    1  UNL1       -0.0003
     20 C         139.7537  143.7316  165.6794 C.ar    1  UNL1       -0.0032
     21 C         139.4893  142.2554  165.7070 C.ar    1  UNL1       -0.0101
@<TRIPOS>BOND
     1    15    16    1
     2    16    17   ar
     3    17    18   ar
     4    18    19   ar
     5    19    20   ar
     6    20    21   ar
     7    21    14    1
     8    14     1    1
     9     1     2    1
    10     2     3    1
    11     3     4    1
    12     4     5    1
    13     5     6    1
    14     6     7    1
    15     8     1    1
    16     8     9    1
    17     9    10    1
    18    10    11    1
    19    11    12    1
    20    21    16   ar
    21     7     2    1
    22    12     8    1
    23    11    13    1
@<TRIPOS>MOLECULE
*****
 21 23 0 0 0
SMALL
GASTEIGER

@<TRIPOS>ATOM
      1 N         141.5305  141.8406  166.6500 N.3     1  UNL1       -0.2700
      2 C         141.6621  142.3762  168.0450 C.3     1  UNL1        0.0628
      3 C         140.4984  143.0608  168.6985 C.3     1  UNL1        0.0481
      4 C         140.6300  143.5964  170.0934 C.3     1  UNL1        0.1435
      5 O         141.9254  143.4475  170.8348 O.3     1  UNL1       -0.3537
      6 C         143.0892  142.7630  170.1813 C.3     1  UNL1        0.1435
      7 C         142.9575  142.2273  168.7864 C.3     1  UNL1        0.0481
      8 C         142.7398  141.7391  165.7684 C.3     1  UNL1        0.0748
      9 C         143.4958  142.8896  165.1728 C.3     1  UNL1        0.0344
     10 C         144.6286  142.3308  164.3638 C.3     1  UNL1        0.0700
     11 N         144.5728  140.8349  164.4595 N.3     1  UNL1       -0.2963
     12 C         143.4054  140.4692  165.3275 C.3     1  UNL1        0.0847
     13 H         145.4358  140.4821  164.8732 H       1  UNL1        0.1233
     14 C         140.1896  141.4065  166.1368 C.3     1  UNL1        0.0988
     15 C         138.1035  140.2753  164.3014 C.3     1  UNL1        0.0307
     16 C         138.3501  141.7545  164.3353 C.ar    1  UNL1       -0.0245
     17 C         137.5537  142.6681  163.4515 C.ar    1  UNL1       -0.0045
     18 C         137.8003  144.1473  163.4855 C.ar    1  UNL1       -0.0003
     19 C         138.8433  144.7129  164.4031 C.ar    1  UNL1       -0.0003
     20 C         139.6397  143.7993  165.2869 C.ar    1  UNL1       -0.0032
     21 C         139.3931  142.3201  165.2530 C.ar    1  UNL1       -0.0101
@<TRIPOS>BOND
     1    15    16    1
     2    16    17   ar
     3    17    18   ar
     4    18    19   ar
     5    19    20   ar
     6    20    21   ar
     7    21    14    1
     8    14     1    1
     9     1     2    1
    10     2     3    1
    11     3     4    1
    12     4     5    1
    13     5     6    1
    14     6     7    1
    15     8     1    1
    16     8     9    1
    17     9    10    1
    18    10    11    1
    19    11    12    1
    20    21    16   ar
    21     7     2    1
    22    12     8    1
    23    11    13    1
@<TRIPOS>MOLECULE
*****
 21 23 0 0 0
SMALL
GASTEIGER

@<TRIPOS>ATOM
      1 N         142.0637  141.7310  167.1656 N.3     1  UNL1       -0.2700
      2 C         142.4423  142.4574  165.9090 C.3     1  UNL1        0.0628
      3 C         141.3881  142.8181  164.9046 C.3     1  UNL1        0.0481
      4 C         141.7667  143.5445  163.6480 C.3     1  UNL1        0.1435
      5 O         143.1994  143.9102  163.3958 O.3     1  UNL1       -0.3537
      6 C         144.2535  143.5495  164.4002 C.3     1  UNL1        0.1435
      7 C         143.8749  142.8231  165.6567 C.3     1  UNL1        0.0481
      8 C         141.7167  142.5041  168.4032 C.3     1  UNL1        0.0748
      9 C         140.4127  143.1936  168.6755 C.3     1  UNL1        0.0344
     10 C         140.5028  143.8392  170.0265 C.3     1  UNL1        0.0700
     11 N         141.8626  143.5487  170.5892 N.3     1  UNL1       -0.2963
     12 C         142.6128  142.7236  169.5859 C.3     1  UNL1        0.0847
     13 H         141.7721  143.0320  171.4640 H       1  UNL1        0.1233
     14 C         142.0320  140.2314  167.1845 C.3     1  UNL1        0.0988
     15 C         142.4910  138.3737  164.8740 C.3     1  UNL1        0.0307
     16 C         141.1059  138.5690  165.4157 C.ar    1  UNL1       -0.0245
     17 C         139.9504  137.8354  164.8021 C.ar    1  UNL1       -0.0045
     18 C         138.5653  138.0307  165.3438 C.ar    1  UNL1       -0.0003
     19 C         138.3358  138.9595  166.4990 C.ar    1  UNL1       -0.0003
     20 C         139.4913  139.6931  167.1126 C.ar    1  UNL1       -0.0032
     21 C         140.8764  139.4978  166.5709 C.ar    1  UNL1       -0.0101
@<TRIPOS>BOND
     1    15    16    1
     2    16    17   ar
     3    17    18   ar
     4    18    19   ar
     5    19    20   ar
     6    20    21   ar
     7    21    14    1
     8    14     1    1
     9     1     2    1
    10     2     3    1
    11     3     4    1
    12     4     5    1
    13     5     6    1
    14     6     7    1
    15     8     1    1
    16     8     9    1
    17     9    10    1
    18    10    11    1
    19    11    12    1
    20    21    16   ar
    21     7     2    1
    22    12     8    1
    23    11    13    1
@<TRIPOS>MOLECULE
*****
 21 23 0 0 0
SMALL
GASTEIGER

@<TRIPOS>ATOM
      1 N         140.8122  140.8641  167.2935 N.3     1  UNL1       -0.2700
      2 C         139.8509  140.6540  166.1612 C.3     1  UNL1        0.0628
      3 C         139.2186  141.8345  165.4854 C.3     1  UNL1        0.0481
      4 C         138.2574  141.6245  164.3533 C.3     1  UNL1        0.1435
      5 O         137.9285  140.2340  163.8968 O.3     1  UNL1       -0.3537
      6 C         138.5608  139.0535  164.5726 C.3     1  UNL1        0.1435
      7 C         139.5220  139.2635  165.7048 C.3     1  UNL1        0.0481
      8 C         140.3498  141.5282  168.5564 C.3     1  UNL1        0.0748
      9 C         140.6584  142.9346  168.9770 C.3     1  UNL1        0.0344
     10 C         139.9969  143.1782  170.3010 C.3     1  UNL1        0.0700
     11 N         139.2795  141.9224  170.6988 N.3     1  UNL1       -0.2963
     12 C         139.4976  140.9027  169.6206 C.3     1  UNL1        0.0847
     13 H         138.2822  142.1108  170.8004 H       1  UNL1        0.1233
     14 C         142.2358  140.4100  167.1627 C.3     1  UNL1        0.0988
     15 C         143.4264  138.7879  164.9375 C.3     1  UNL1        0.0307
     16 C         143.7374  140.2511  165.0485 C.ar    1  UNL1       -0.0245
     17 C         144.6436  140.9033  164.0468 C.ar    1  UNL1       -0.0045
     18 C         144.9546  142.3665  164.1578 C.ar    1  UNL1       -0.0003
     19 C         144.3594  143.1775  165.2704 C.ar    1  UNL1       -0.0003
     20 C         143.4531  142.5253  166.2720 C.ar    1  UNL1       -0.0032
     21 C         143.1421  141.0621  166.1610 C.ar    1  UNL1       -0.0101
@<TRIPOS>BOND
     1    15    16    1
     2    16    17   ar
     3    17    18   ar
     4    18    19   ar
     5    19    20   ar
     6    20    21   ar
     7    21    14    1
     8    14     1    1
     9     1     2    1
    10     2     3    1
    11     3     4    1
    12     4     5    1
    13     5     6    1
    14     6     7    1
    15     8     1    1
    16     8     9    1
    17     9    10    1
    18    10    11    1
    19    11    12    1
    20    21    16   ar
    21     7     2    1
    22    12     8    1
    23    11    13    1
@<TRIPOS>MOLECULE
*****
 21 23 0 0 0
SMALL
GASTEIGER

@<TRIPOS>ATOM
      1 N         141.0871  141.5988  166.6047 N.3     1  UNL1       -0.2700
      2 C         140.4808  141.6866  167.9740 C.3     1  UNL1        0.0628
      3 C         140.6146  142.9485  168.7739 C.3     1  UNL1        0.0481
      4 C         140.0084  143.0363  170.1431 C.3     1  UNL1        0.1435
      5 O         139.2683  141.8623  170.7123 O.3     1  UNL1       -0.3537
      6 C         139.1345  140.6005  169.9124 C.3     1  UNL1        0.1435
      7 C         139.7408  140.5127  168.5432 C.3     1  UNL1        0.0481
      8 C         141.5569  140.2760  166.0759 C.3     1  UNL1        0.0748
      9 C         142.8561  139.6044  166.4090 C.3     1  UNL1        0.0344
     10 C         142.9121  138.3059  165.6601 C.3     1  UNL1        0.0700
     11 N         141.6474  138.1750  164.8642 N.3     1  UNL1       -0.2963
     12 C         140.8098  139.3926  165.1212 C.3     1  UNL1        0.0847
     13 H         141.1407  137.3387  165.1546 H       1  UNL1        0.1233
     14 C         141.2237  142.8337  165.7643 C.3     1  UNL1        0.0988
     15 C         141.5753  145.1684  163.9134 C.3     1  UNL1        0.0307
     16 C         140.2638  144.4422  163.9639 C.ar    1  UNL1       -0.0245
     17 C         139.1281  144.8832  163.0889 C.ar    1  UNL1       -0.0045
     18 C         137.8166  144.1570  163.1393 C.ar    1  UNL1       -0.0003
     19 C         137.6408  142.9897  164.0647 C.ar    1  UNL1       -0.0003
     20 C         138.7765  142.5486  164.9397 C.ar    1  UNL1       -0.0032
     21 C         140.0880  143.2749  164.8893 C.ar    1  UNL1       -0.0101
@<TRIPOS>BOND
     1    15    16    1
     2    16    17   ar
     3    17    18   ar
     4    18    19   ar
     5    19    20   ar
     6    20    21   ar
     7    21    14    1
     8    14     1    1
     9     1     2    1
    10     2     3    1
    11     3     4    1
    12     4     5    1
    13     5     6    1
    14     6     7    1
    15     8     1    1
    16     8     9    1
    17     9    10    1
    18    10    11    1
    19    11    12    1
    20    21    16   ar
    21     7     2    1
    22    12     8    1
    23    11    13    1
