@<TRIPOS>MOLECULE
*****
 30 33 0 0 0
SMALL
GASTEIGER

@<TRIPOS>ATOM
      1 N         139.5402  142.0054  161.0536 N.3     1  UNL1       -0.2695
      2 C         138.7636  141.8420  162.3264 C.3     1  UNL1        0.0939
      3 C         138.8475  140.5577  163.0966 C.3     1  UNL1        0.1107
      4 N         139.7081  139.4366  162.5941 N.am    1  UNL1       -0.2764
      5 C         139.7920  138.1522  163.3644 C.2     1  UNL1        0.2301
      6 O         140.6527  137.0312  162.8619 O.2     1  UNL1       -0.2745
      7 C         140.4848  139.5999  161.3213 C.3     1  UNL1        0.1107
      8 C         140.4009  140.8843  160.5511 C.3     1  UNL1        0.0939
      9 C         139.4563  143.2898  160.2833 C.3     1  UNL1        0.0769
     10 C         140.6091  144.2493  160.2972 C.3     1  UNL1        0.0437
     11 C         143.5775  143.5512  162.8372 C.ar    1  UNL1        0.0681
     12 C         143.2568  144.5331  163.9248 C.ar    1  UNL1        0.0103
     13 C         142.0535  145.4204  163.8032 C.ar    1  UNL1        0.0004
     14 C         141.1710  145.3259  162.5941 C.ar    1  UNL1       -0.0042
     15 C         141.4917  144.3439  161.5065 C.ar    1  UNL1       -0.0201
     16 C         142.6950  143.4566  161.6280 C.ar    1  UNL1        0.0061
     17 N         145.9840  141.7765  163.0803 N.1     1  UNL1       -0.1908
     18 C         144.7808  142.6638  162.9587 C.1     1  UNL1        0.1004
     19 C         139.0154  137.9889  164.6372 C.3     1  UNL1        0.1116
     20 C         139.4167  138.7530  165.8640 C.ar    1  UNL1       -0.0130
     21 C         138.4071  139.0315  166.9379 C.ar    1  UNL1       -0.0022
     22 C         138.8085  139.7956  168.1647 C.ar    1  UNL1        0.0190
     23 C         140.2195  140.2812  168.3176 C.ar    1  UNL1        0.0862
     24 C         141.2290  140.0027  167.2438 C.ar    1  UNL1        0.0190
     25 C         140.8277  139.2386  166.0169 C.ar    1  UNL1       -0.0022
     26 N         140.6208  141.0453  169.5445 N.ar    1  UNL1       -0.1886
     27 C         141.7986  141.9666  169.6633 C.ar    1  UNL1        0.2258
     28 N         141.8206  142.5130  171.0601 N.ar    1  UNL1       -0.1045
     29 N         140.6563  141.9293  171.8045 N.ar    1  UNL1       -0.0222
     30 N         139.9149  141.0223  170.8678 N.ar    1  UNL1       -0.0385
@<TRIPOS>BOND
     1    17    18    3
     2    18    11    1
     3    11    12   ar
     4    12    13   ar
     5    13    14   ar
     6    14    15   ar
     7    15    10    1
     8    10     9    1
     9     9     1    1
    10     1     2    1
    11     2     3    1
    12     3     4    1
    13     4     5   am
    14     5     6    2
    15     5    19    1
    16    19    20    1
    17    20    21   ar
    18    21    22   ar
    19    22    23   ar
    20    23    26    1
    21    26    27   ar
    22    27    28   ar
    23    28    29   ar
    24    29    30   ar
    25    23    24   ar
    26    24    25   ar
    27     4     7    1
    28     7     8    1
    29    15    16   ar
    30    16    11   ar
    31     8     1    1
    32    25    20   ar
    33    30    26   ar
@<TRIPOS>MOLECULE
*****
 30 33 0 0 0
SMALL
GASTEIGER

@<TRIPOS>ATOM
      1 N         139.1143  141.3681  160.3428 N.3     1  UNL1       -0.2695
      2 C         138.2062  141.1885  161.5230 C.3     1  UNL1        0.0939
      3 C         138.4295  140.0507  162.4747 C.3     1  UNL1        0.1107
      4 N         139.5608  139.0927  162.2461 N.am    1  UNL1       -0.2764
      5 C         139.7841  137.9549  163.1978 C.2     1  UNL1        0.2301
      6 O         140.9154  136.9969  162.9692 O.2     1  UNL1       -0.2745
      7 C         140.4689  139.2724  161.0658 C.3     1  UNL1        0.1107
      8 C         140.2456  140.4101  160.1141 C.3     1  UNL1        0.0939
      9 C         138.8910  142.5059  159.3910 C.3     1  UNL1        0.0769
     10 C         139.6903  143.7676  159.5298 C.3     1  UNL1        0.0437
     11 C         140.1086  144.7123  163.3615 C.ar    1  UNL1        0.0681
     12 C         141.6022  144.7980  163.4709 C.ar    1  UNL1        0.0103
     13 C         142.4584  144.5402  162.2666 C.ar    1  UNL1        0.0004
     14 C         141.8211  144.1967  160.9529 C.ar    1  UNL1       -0.0042
     15 C         140.3276  144.1111  160.8435 C.ar    1  UNL1       -0.0201
     16 C         139.4714  144.3689  162.0478 C.ar    1  UNL1        0.0061
     17 N         138.3961  145.2279  165.7702 N.1     1  UNL1       -0.1908
     18 C         139.2524  144.9701  164.5659 C.1     1  UNL1        0.1004
     19 C         138.8760  137.7752  164.3781 C.3     1  UNL1        0.1116
     20 C         139.1478  138.5171  165.6531 C.ar    1  UNL1       -0.0130
     21 C         138.0657  138.6618  166.6818 C.ar    1  UNL1       -0.0022
     22 C         138.3374  139.4037  167.9569 C.ar    1  UNL1        0.0190
     23 C         139.6911  140.0008  168.2033 C.ar    1  UNL1        0.0862
     24 C         140.7732  139.8561  167.1747 C.ar    1  UNL1        0.0190
     25 C         140.5015  139.1142  165.8995 C.ar    1  UNL1       -0.0022
     26 N         139.9628  140.7426  169.4785 N.ar    1  UNL1       -0.1886
     27 C         140.0451  142.2326  169.6312 C.ar    1  UNL1        0.2258
     28 N         140.3331  142.5356  171.0718 N.ar    1  UNL1       -0.1045
     29 N         140.4287  141.2329  171.8093 N.ar    1  UNL1       -0.0222
     30 N         140.1999  140.1248  170.8246 N.ar    1  UNL1       -0.0385
@<TRIPOS>BOND
     1    17    18    3
     2    18    11    1
     3    11    12   ar
     4    12    13   ar
     5    13    14   ar
     6    14    15   ar
     7    15    10    1
     8    10     9    1
     9     9     1    1
    10     1     2    1
    11     2     3    1
    12     3     4    1
    13     4     5   am
    14     5     6    2
    15     5    19    1
    16    19    20    1
    17    20    21   ar
    18    21    22   ar
    19    22    23   ar
    20    23    26    1
    21    26    27   ar
    22    27    28   ar
    23    28    29   ar
    24    29    30   ar
    25    23    24   ar
    26    24    25   ar
    27     4     7    1
    28     7     8    1
    29    15    16   ar
    30    16    11   ar
    31     8     1    1
    32    25    20   ar
    33    30    26   ar
@<TRIPOS>MOLECULE
*****
 30 33 0 0 0
SMALL
GASTEIGER

@<TRIPOS>ATOM
      1 N         140.3368  139.7027  161.0361 N.3     1  UNL1       -0.2695
      2 C         140.3603  138.9893  162.3554 C.3     1  UNL1        0.0939
      3 C         141.5795  139.0625  163.2260 C.3     1  UNL1        0.1107
      4 N         142.7753  139.8493  162.7775 N.am    1  UNL1       -0.2764
      5 C         143.9945  139.9225  163.6482 C.2     1  UNL1        0.2301
      6 O         145.1903  140.7093  163.1997 O.2     1  UNL1       -0.2745
      7 C         142.7518  140.5628  161.4583 C.3     1  UNL1        0.1107
      8 C         141.5326  140.4895  160.5876 C.3     1  UNL1        0.0939
      9 C         139.1176  139.6295  160.1654 C.3     1  UNL1        0.0769
     10 C         137.9205  140.4775  160.4782 C.3     1  UNL1        0.0437
     11 C         138.6662  143.8699  162.3980 C.ar    1  UNL1        0.0681
     12 C         138.1335  143.5465  163.7623 C.ar    1  UNL1        0.0103
     13 C         137.5297  142.2001  164.0320 C.ar    1  UNL1        0.0004
     14 C         137.4587  141.1771  162.9373 C.ar    1  UNL1       -0.0042
     15 C         137.9915  141.5005  161.5730 C.ar    1  UNL1       -0.0201
     16 C         138.5952  142.8469  161.3033 C.ar    1  UNL1        0.0061
     17 N         139.8737  146.5627  161.8586 N.1     1  UNL1       -0.1908
     18 C         139.2700  145.2163  162.1283 C.1     1  UNL1        0.1004
     19 C         144.0180  139.2091  164.9674 C.3     1  UNL1        0.1116
     20 C         143.3227  139.8056  166.1551 C.ar    1  UNL1       -0.0130
     21 C         142.9098  141.2476  166.1365 C.ar    1  UNL1       -0.0022
     22 C         142.2145  141.8441  167.3241 C.ar    1  UNL1        0.0190
     23 C         141.9320  140.9987  168.5306 C.ar    1  UNL1        0.0862
     24 C         142.3447  139.5568  168.5493 C.ar    1  UNL1        0.0190
     25 C         143.0401  138.9602  167.3615 C.ar    1  UNL1       -0.0022
     26 N         141.2366  141.5953  169.7183 N.ar    1  UNL1       -0.1886
     27 C         141.5004  141.2575  171.1558 C.ar    1  UNL1        0.2258
     28 N         140.5822  142.0878  172.0030 N.ar    1  UNL1       -0.1045
     29 N         139.7511  142.9387  171.0890 N.ar    1  UNL1       -0.0222
     30 N         140.1556  142.6343  169.6770 N.ar    1  UNL1       -0.0385
@<TRIPOS>BOND
     1    17    18    3
     2    18    11    1
     3    11    12   ar
     4    12    13   ar
     5    13    14   ar
     6    14    15   ar
     7    15    10    1
     8    10     9    1
     9     9     1    1
    10     1     2    1
    11     2     3    1
    12     3     4    1
    13     4     5   am
    14     5     6    2
    15     5    19    1
    16    19    20    1
    17    20    21   ar
    18    21    22   ar
    19    22    23   ar
    20    23    26    1
    21    26    27   ar
    22    27    28   ar
    23    28    29   ar
    24    29    30   ar
    25    23    24   ar
    26    24    25   ar
    27     4     7    1
    28     7     8    1
    29    15    16   ar
    30    16    11   ar
    31     8     1    1
    32    25    20   ar
    33    30    26   ar
@<TRIPOS>MOLECULE
*****
 30 33 0 0 0
SMALL
GASTEIGER

@<TRIPOS>ATOM
      1 N         142.7525  140.6020  160.8420 N.3     1  UNL1       -0.2695
      2 C         143.1180  139.8882  162.1096 C.3     1  UNL1        0.0939
      3 C         142.0490  139.2491  162.9455 C.3     1  UNL1        0.1107
      4 N         140.6144  139.3238  162.5137 N.am    1  UNL1       -0.2764
      5 C         139.5454  138.6846  163.3496 C.2     1  UNL1        0.2301
      6 O         138.1108  138.7593  162.9178 O.2     1  UNL1       -0.2745
      7 C         140.2489  140.0375  161.2461 C.3     1  UNL1        0.1107
      8 C         141.3179  140.6766  160.4102 C.3     1  UNL1        0.0939
      9 C         143.8216  141.2411  160.0061 C.3     1  UNL1        0.0769
     10 C         144.4724  142.5123  160.4646 C.3     1  UNL1        0.0437
     11 C         141.7966  144.8994  162.1652 C.ar    1  UNL1        0.0681
     12 C         142.4250  145.1172  163.5097 C.ar    1  UNL1        0.0103
     13 C         143.7358  144.4667  163.8392 C.ar    1  UNL1        0.0004
     14 C         144.4183  143.5984  162.8242 C.ar    1  UNL1       -0.0042
     15 C         143.7899  143.3806  161.4797 C.ar    1  UNL1       -0.0201
     16 C         142.4791  144.0311  161.1502 C.ar    1  UNL1        0.0061
     17 N         139.1749  146.2003  161.5062 N.1     1  UNL1       -0.1908
     18 C         140.4858  145.5499  161.8357 C.1     1  UNL1        0.1004
     19 C         139.9109  137.9709  164.6172 C.3     1  UNL1        0.1116
     20 C         140.1418  138.7511  165.8774 C.ar    1  UNL1       -0.0130
     21 C         138.9774  139.1616  166.7294 C.ar    1  UNL1       -0.0022
     22 C         139.2083  139.9418  167.9895 C.ar    1  UNL1        0.0190
     23 C         140.6035  140.3115  168.3977 C.ar    1  UNL1        0.0862
     24 C         141.7679  139.9011  167.5457 C.ar    1  UNL1        0.0190
     25 C         141.5370  139.1209  166.2856 C.ar    1  UNL1       -0.0022
     26 N         140.8344  141.0918  169.6579 N.ar    1  UNL1       -0.1886
     27 C         142.0706  141.8700  169.9990 C.ar    1  UNL1        0.2258
     28 N         141.8698  142.4900  171.3501 N.ar    1  UNL1       -0.1045
     29 N         140.5096  142.0949  171.8439 N.ar    1  UNL1       -0.0222
     30 N         139.8697  141.2308  170.7980 N.ar    1  UNL1       -0.0385
@<TRIPOS>BOND
     1    17    18    3
     2    18    11    1
     3    11    12   ar
     4    12    13   ar
     5    13    14   ar
     6    14    15   ar
     7    15    10    1
     8    10     9    1
     9     9     1    1
    10     1     2    1
    11     2     3    1
    12     3     4    1
    13     4     5   am
    14     5     6    2
    15     5    19    1
    16    19    20    1
    17    20    21   ar
    18    21    22   ar
    19    22    23   ar
    20    23    26    1
    21    26    27   ar
    22    27    28   ar
    23    28    29   ar
    24    29    30   ar
    25    23    24   ar
    26    24    25   ar
    27     4     7    1
    28     7     8    1
    29    15    16   ar
    30    16    11   ar
    31     8     1    1
    32    25    20   ar
    33    30    26   ar
@<TRIPOS>MOLECULE
*****
 30 33 0 0 0
SMALL
GASTEIGER

@<TRIPOS>ATOM
      1 N         141.0145  140.7013  160.6205 N.3     1  UNL1       -0.2695
      2 C         140.7584  139.8449  161.8251 C.3     1  UNL1        0.0939
      3 C         141.8273  139.6717  162.8631 C.3     1  UNL1        0.1107
      4 N         143.1522  140.3550  162.6966 N.am    1  UNL1       -0.2764
      5 C         144.2210  140.1819  163.7348 C.2     1  UNL1        0.2301
      6 O         145.5460  140.8651  163.5683 O.2     1  UNL1       -0.2745
      7 C         143.4083  141.2114  161.4921 C.3     1  UNL1        0.1107
      8 C         142.3395  141.3845  160.4540 C.3     1  UNL1        0.0939
      9 C         139.9457  140.8744  159.5824 C.3     1  UNL1        0.0769
     10 C         138.9517  141.9907  159.7083 C.3     1  UNL1        0.0437
     11 C         139.3112  144.6545  162.6281 C.ar    1  UNL1        0.0681
     12 C         140.0570  145.7486  161.9234 C.ar    1  UNL1        0.0103
     13 C         140.4345  145.5901  160.4803 C.ar    1  UNL1        0.0004
     14 C         140.0660  144.3375  159.7420 C.ar    1  UNL1       -0.0042
     15 C         139.3202  143.2434  160.4466 C.ar    1  UNL1       -0.0201
     16 C         138.9428  143.4019  161.8897 C.ar    1  UNL1        0.0061
     17 N         138.5564  144.9715  165.5142 N.1     1  UNL1       -0.1908
     18 C         138.9338  144.8130  164.0711 C.1     1  UNL1        0.1004
     19 C         143.9650  139.3255  164.9393 C.3     1  UNL1        0.1116
     20 C         143.2754  139.9050  166.1386 C.ar    1  UNL1       -0.0130
     21 C         142.9279  139.0246  167.3023 C.ar    1  UNL1       -0.0022
     22 C         142.2383  139.6042  168.5017 C.ar    1  UNL1        0.0190
     23 C         141.8962  141.0642  168.5374 C.ar    1  UNL1        0.0862
     24 C         142.2436  141.9446  167.3738 C.ar    1  UNL1        0.0190
     25 C         142.9333  141.3651  166.1744 C.ar    1  UNL1       -0.0022
     26 N         141.2065  141.6438  169.7369 N.ar    1  UNL1       -0.1886
     27 C         141.5362  141.3507  171.1706 C.ar    1  UNL1        0.2258
     28 N         140.5996  142.1439  172.0330 N.ar    1  UNL1       -0.1045
     29 N         139.6912  142.9272  171.1322 N.ar    1  UNL1       -0.0222
     30 N         140.0663  142.6181  169.7132 N.ar    1  UNL1       -0.0385
@<TRIPOS>BOND
     1    17    18    3
     2    18    11    1
     3    11    12   ar
     4    12    13   ar
     5    13    14   ar
     6    14    15   ar
     7    15    10    1
     8    10     9    1
     9     9     1    1
    10     1     2    1
    11     2     3    1
    12     3     4    1
    13     4     5   am
    14     5     6    2
    15     5    19    1
    16    19    20    1
    17    20    21   ar
    18    21    22   ar
    19    22    23   ar
    20    23    26    1
    21    26    27   ar
    22    27    28   ar
    23    28    29   ar
    24    29    30   ar
    25    23    24   ar
    26    24    25   ar
    27     4     7    1
    28     7     8    1
    29    15    16   ar
    30    16    11   ar
    31     8     1    1
    32    25    20   ar
    33    30    26   ar
@<TRIPOS>MOLECULE
*****
 30 33 0 0 0
SMALL
GASTEIGER

@<TRIPOS>ATOM
      1 N         139.4640  140.5807  160.7024 N.3     1  UNL1       -0.2695
      2 C         140.7113  140.7787  161.5117 C.3     1  UNL1        0.0939
      3 C         140.9323  142.0681  162.2455 C.3     1  UNL1        0.1107
      4 N         139.9061  143.1595  162.1700 N.am    1  UNL1       -0.2764
      5 C         140.1272  144.4490  162.9039 C.2     1  UNL1        0.2301
      6 O         139.1009  145.5404  162.8284 O.2     1  UNL1       -0.2745
      7 C         138.6588  142.9615  161.3608 C.3     1  UNL1        0.1107
      8 C         138.4377  141.6721  160.6270 C.3     1  UNL1        0.0939
      9 C         139.2428  139.2912  159.9686 C.3     1  UNL1        0.0769
     10 C         138.9753  138.0291  160.7338 C.3     1  UNL1        0.0437
     11 C         139.1840  137.8644  164.6935 C.ar    1  UNL1        0.0681
     12 C         140.6314  137.5220  164.8871 C.ar    1  UNL1        0.0103
     13 C         141.5269  137.3486  163.6962 C.ar    1  UNL1        0.0004
     14 C         140.9749  137.5176  162.3118 C.ar    1  UNL1       -0.0042
     15 C         139.5274  137.8601  162.1183 C.ar    1  UNL1       -0.0201
     16 C         138.6319  138.0335  163.3091 C.ar    1  UNL1        0.0061
     17 N         137.3931  138.2112  167.0752 N.1     1  UNL1       -0.1908
     18 C         138.2885  138.0378  165.8844 C.1     1  UNL1        0.1004
     19 C         141.3745  144.6470  163.7131 C.3     1  UNL1        0.1116
     20 C         141.6927  143.7116  164.8417 C.ar    1  UNL1       -0.0130
     21 C         140.6025  143.2487  165.7622 C.ar    1  UNL1       -0.0022
     22 C         140.9207  142.3132  166.8908 C.ar    1  UNL1        0.0190
     23 C         142.3290  141.8406  167.0988 C.ar    1  UNL1        0.0862
     24 C         143.4192  142.3034  166.1783 C.ar    1  UNL1        0.0190
     25 C         143.1010  143.2389  165.0497 C.ar    1  UNL1       -0.0022
     26 N         142.6472  140.9050  168.2274 N.ar    1  UNL1       -0.1886
     27 C         143.0743  141.3035  169.6090 C.ar    1  UNL1        0.2258
     28 N         143.2852  140.0515  170.4080 N.ar    1  UNL1       -0.1045
     29 N         142.9884  138.8795  169.5201 N.ar    1  UNL1       -0.0222
     30 N         142.5941  139.4070  168.1725 N.ar    1  UNL1       -0.0385
@<TRIPOS>BOND
     1    17    18    3
     2    18    11    1
     3    11    12   ar
     4    12    13   ar
     5    13    14   ar
     6    14    15   ar
     7    15    10    1
     8    10     9    1
     9     9     1    1
    10     1     2    1
    11     2     3    1
    12     3     4    1
    13     4     5   am
    14     5     6    2
    15     5    19    1
    16    19    20    1
    17    20    21   ar
    18    21    22   ar
    19    22    23   ar
    20    23    26    1
    21    26    27   ar
    22    27    28   ar
    23    28    29   ar
    24    29    30   ar
    25    23    24   ar
    26    24    25   ar
    27     4     7    1
    28     7     8    1
    29    15    16   ar
    30    16    11   ar
    31     8     1    1
    32    25    20   ar
    33    30    26   ar
@<TRIPOS>MOLECULE
*****
 30 33 0 0 0
SMALL
GASTEIGER

@<TRIPOS>ATOM
      1 N         141.8576  139.3339  159.6242 N.3     1  UNL1       -0.2695
      2 C         142.0820  138.4940  160.8465 C.3     1  UNL1        0.0939
      3 C         143.0857  138.9211  161.8760 C.3     1  UNL1        0.1107
      4 N         143.8651  140.1882  161.6832 N.am    1  UNL1       -0.2764
      5 C         144.8689  140.6153  162.7128 C.2     1  UNL1        0.2301
      6 O         145.6483  141.8823  162.5201 O.2     1  UNL1       -0.2745
      7 C         143.6407  141.0281  160.4609 C.3     1  UNL1        0.1107
      8 C         142.6369  140.6010  159.4314 C.3     1  UNL1        0.0939
      9 C         140.8538  138.9068  158.5945 C.3     1  UNL1        0.0769
     10 C         139.4241  139.3444  158.7142 C.3     1  UNL1        0.0437
     11 C         138.1698  141.5670  161.7535 C.ar    1  UNL1        0.0681
     12 C         137.7549  140.5055  162.7287 C.ar    1  UNL1        0.0103
     13 C         137.8964  139.0570  162.3658 C.ar    1  UNL1        0.0004
     14 C         138.4528  138.6699  161.0276 C.ar    1  UNL1       -0.0042
     15 C         138.8676  139.7314  160.0524 C.ar    1  UNL1       -0.0201
     16 C         138.7261  141.1800  160.4153 C.ar    1  UNL1        0.0061
     17 N         137.8868  144.4641  162.4793 N.1     1  UNL1       -0.1908
     18 C         138.0283  143.0156  162.1164 C.1     1  UNL1        0.1004
     19 C         145.0933  139.7753  163.9352 C.3     1  UNL1        0.1116
     20 C         144.0922  139.7940  165.0520 C.ar    1  UNL1       -0.0130
     21 C         143.9869  138.6237  165.9845 C.ar    1  UNL1       -0.0022
     22 C         142.9859  138.6423  167.1014 C.ar    1  UNL1        0.0190
     23 C         142.0901  139.8312  167.2859 C.ar    1  UNL1        0.0862
     24 C         142.1954  141.0015  166.3536 C.ar    1  UNL1        0.0190
     25 C         143.1965  140.9829  165.2366 C.ar    1  UNL1       -0.0022
     26 N         141.0890  139.8498  168.4029 N.ar    1  UNL1       -0.1886
     27 C         139.6276  140.1614  168.2718 C.ar    1  UNL1        0.2258
     28 N         139.0089  140.0642  169.6349 N.ar    1  UNL1       -0.1045
     29 N         140.0881  139.6926  170.6083 N.ar    1  UNL1       -0.0222
     30 N         141.3736  139.5601  169.8468 N.ar    1  UNL1       -0.0385
@<TRIPOS>BOND
     1    17    18    3
     2    18    11    1
     3    11    12   ar
     4    12    13   ar
     5    13    14   ar
     6    14    15   ar
     7    15    10    1
     8    10     9    1
     9     9     1    1
    10     1     2    1
    11     2     3    1
    12     3     4    1
    13     4     5   am
    14     5     6    2
    15     5    19    1
    16    19    20    1
    17    20    21   ar
    18    21    22   ar
    19    22    23   ar
    20    23    26    1
    21    26    27   ar
    22    27    28   ar
    23    28    29   ar
    24    29    30   ar
    25    23    24   ar
    26    24    25   ar
    27     4     7    1
    28     7     8    1
    29    15    16   ar
    30    16    11   ar
    31     8     1    1
    32    25    20   ar
    33    30    26   ar
@<TRIPOS>MOLECULE
*****
 30 33 0 0 0
SMALL
GASTEIGER

@<TRIPOS>ATOM
      1 N         141.8876  138.1833  159.0006 N.3     1  UNL1       -0.2695
      2 C         142.6081  137.8193  160.2648 C.3     1  UNL1        0.0939
      3 C         141.8721  137.8109  161.5717 C.3     1  UNL1        0.1107
      4 N         140.4155  138.1666  161.6144 N.am    1  UNL1       -0.2764
      5 C         139.6794  138.1582  162.9214 C.2     1  UNL1        0.2301
      6 O         138.2228  138.5139  162.9642 O.2     1  UNL1       -0.2745
      7 C         139.6949  138.5306  160.3502 C.3     1  UNL1        0.1107
      8 C         140.4310  138.5389  159.0433 C.3     1  UNL1        0.0939
      9 C         142.6237  138.1916  157.6936 C.3     1  UNL1        0.0769
     10 C         142.0224  137.5285  156.4900 C.3     1  UNL1        0.0437
     11 C         143.3829  133.8158  156.8295 C.ar    1  UNL1        0.0681
     12 C         142.4316  133.0821  155.9313 C.ar    1  UNL1        0.0103
     13 C         141.3439  133.8305  155.2194 C.ar    1  UNL1        0.0004
     14 C         141.2075  135.3126  155.4056 C.ar    1  UNL1       -0.0042
     15 C         142.1588  136.0463  156.3037 C.ar    1  UNL1       -0.0201
     16 C         143.2464  135.2979  157.0157 C.ar    1  UNL1        0.0061
     17 N         145.5582  132.3190  158.2534 N.1     1  UNL1       -0.1908
     18 C         144.4705  133.0674  157.5415 C.1     1  UNL1        0.1004
     19 C         140.3999  137.7942  164.1857 C.3     1  UNL1        0.1116
     20 C         140.3283  138.7019  165.3777 C.ar    1  UNL1       -0.0130
     21 C         139.0240  138.9012  166.0913 C.ar    1  UNL1       -0.0022
     22 C         138.9523  139.8089  167.2833 C.ar    1  UNL1        0.0190
     23 C         140.1849  140.5174  167.7617 C.ar    1  UNL1        0.0862
     24 C         141.4891  140.3181  167.0482 C.ar    1  UNL1        0.0190
     25 C         141.5608  139.4104  165.8561 C.ar    1  UNL1       -0.0022
     26 N         140.1132  141.4251  168.9538 N.ar    1  UNL1       -0.1886
     27 C         140.5138  142.8702  168.9868 C.ar    1  UNL1        0.2258
     28 N         140.2765  143.3854  170.3755 N.ar    1  UNL1       -0.1045
     29 N         139.7292  142.2586  171.2006 N.ar    1  UNL1       -0.0222
     30 N         139.6282  141.0471  170.3219 N.ar    1  UNL1       -0.0385
@<TRIPOS>BOND
     1    17    18    3
     2    18    11    1
     3    11    12   ar
     4    12    13   ar
     5    13    14   ar
     6    14    15   ar
     7    15    10    1
     8    10     9    1
     9     9     1    1
    10     1     2    1
    11     2     3    1
    12     3     4    1
    13     4     5   am
    14     5     6    2
    15     5    19    1
    16    19    20    1
    17    20    21   ar
    18    21    22   ar
    19    22    23   ar
    20    23    26    1
    21    26    27   ar
    22    27    28   ar
    23    28    29   ar
    24    29    30   ar
    25    23    24   ar
    26    24    25   ar
    27     4     7    1
    28     7     8    1
    29    15    16   ar
    30    16    11   ar
    31     8     1    1
    32    25    20   ar
    33    30    26   ar
@<TRIPOS>MOLECULE
*****
 30 33 0 0 0
SMALL
GASTEIGER

@<TRIPOS>ATOM
      1 N         142.6898  142.3264  160.0920 N.3     1  UNL1       -0.2695
      2 C         143.4876  142.7220  161.2990 C.3     1  UNL1        0.0939
      3 C         143.6953  141.7415  162.4150 C.3     1  UNL1        0.1107
      4 N         143.1051  140.3655  162.3241 N.am    1  UNL1       -0.2764
      5 C         143.3129  139.3851  163.4402 C.2     1  UNL1        0.2301
      6 O         142.7227  138.0091  163.3493 O.2     1  UNL1       -0.2745
      7 C         142.3073  139.9699  161.1171 C.3     1  UNL1        0.1107
      8 C         142.0996  140.9503  160.0011 C.3     1  UNL1        0.0939
      9 C         142.4820  143.3068  158.9759 C.3     1  UNL1        0.0769
     10 C         141.2166  144.1093  158.9084 C.3     1  UNL1        0.0437
     11 C         138.7261  143.5965  161.9554 C.ar    1  UNL1        0.0681
     12 C         138.8609  144.9155  162.6567 C.ar    1  UNL1        0.0103
     13 C         139.7809  145.9659  162.1086 C.ar    1  UNL1        0.0004
     14 C         140.5661  145.6971  160.8592 C.ar    1  UNL1       -0.0042
     15 C         140.4313  144.3781  160.1579 C.ar    1  UNL1       -0.0201
     16 C         139.5113  143.3278  160.7060 C.ar    1  UNL1        0.0061
     17 N         136.8861  141.4959  163.0516 N.1     1  UNL1       -0.1908
     18 C         137.8061  142.5462  162.5035 C.1     1  UNL1        0.1004
     19 C         144.1108  139.7807  164.6472 C.3     1  UNL1        0.1116
     20 C         143.4112  140.2579  165.8853 C.ar    1  UNL1       -0.0130
     21 C         143.2078  141.7265  166.1130 C.ar    1  UNL1       -0.0022
     22 C         142.5083  142.2037  167.3511 C.ar    1  UNL1        0.0190
     23 C         142.0120  141.2123  168.3615 C.ar    1  UNL1        0.0862
     24 C         142.2153  139.7437  168.1338 C.ar    1  UNL1        0.0190
     25 C         142.9149  139.2664  166.8956 C.ar    1  UNL1       -0.0022
     26 N         141.3124  141.6895  169.5996 N.ar    1  UNL1       -0.1886
     27 C         140.2126  142.7081  169.6536 C.ar    1  UNL1        0.2258
     28 N         139.8102  142.8801  171.0884 N.ar    1  UNL1       -0.1045
     29 N         140.6613  141.9677  171.9211 N.ar    1  UNL1       -0.0222
     30 N         141.5897  141.2319  171.0009 N.ar    1  UNL1       -0.0385
@<TRIPOS>BOND
     1    17    18    3
     2    18    11    1
     3    11    12   ar
     4    12    13   ar
     5    13    14   ar
     6    14    15   ar
     7    15    10    1
     8    10     9    1
     9     9     1    1
    10     1     2    1
    11     2     3    1
    12     3     4    1
    13     4     5   am
    14     5     6    2
    15     5    19    1
    16    19    20    1
    17    20    21   ar
    18    21    22   ar
    19    22    23   ar
    20    23    26    1
    21    26    27   ar
    22    27    28   ar
    23    28    29   ar
    24    29    30   ar
    25    23    24   ar
    26    24    25   ar
    27     4     7    1
    28     7     8    1
    29    15    16   ar
    30    16    11   ar
    31     8     1    1
    32    25    20   ar
    33    30    26   ar
