@<TRIPOS>MOLECULE
*****
 36 39 0 0 0
SMALL
GASTEIGER

@<TRIPOS>ATOM
      1 C         140.5007  142.8483  165.9279 C.ar    1  UNL1        0.0003
      2 C         141.8553  142.6316  165.3212 C.ar    1  UNL1        0.0013
      3 C         142.2820  143.4391  164.1313 C.ar    1  UNL1        0.0147
      4 C         141.3540  144.4632  163.5481 C.ar    1  UNL1        0.0516
      5 C         139.9994  144.6798  164.1548 C.ar    1  UNL1        0.0147
      6 C         139.5727  143.8723  165.3447 C.ar    1  UNL1        0.0013
      7 C         139.2208  140.4258  169.4978 C.ar    1  UNL1        0.1757
      8 C         139.9295  141.7333  169.6936 C.ar    1  UNL1        0.0402
      9 C         140.3561  142.5407  168.5037 C.ar    1  UNL1        0.0034
     10 C         140.0740  142.0407  167.1179 C.ar    1  UNL1        0.0060
     11 C         139.3653  140.7333  166.9220 C.ar    1  UNL1        0.0746
     12 C         138.9531  139.9904  165.6858 C.ar    1  UNL1        0.1675
     13 N         139.1821  140.4359  164.2719 N.pl3   1  UNL1       -0.3400
     14 N         138.2718  138.7238  166.1118 N.ar    1  UNL1       -0.0622
     15 O         138.2629  138.6839  167.6113 O.2     1  UNL1       -0.3490
     16 C         138.9387  139.9258  168.1120 C.ar    1  UNL1        0.2117
     17 H         139.6414  141.2880  164.0926 H       1  UNL1        0.1438
     18 H         138.8731  139.8761  163.5233 H       1  UNL1        0.1438
     19 C         137.3515  139.2480  170.8647 C.3     1  UNL1        0.2526
     20 O         138.7942  139.6184  170.6878 O.3     1  UNL1       -0.4683
     21 N         141.7808  145.2706  162.3582 N.am    1  UNL1       -0.2681
     22 C         141.4330  144.8084  160.9743 C.2     1  UNL1        0.3082
     23 O         140.6584  143.5385  160.7802 O.2     1  UNL1       -0.2522
     24 N         141.8597  145.6158  159.7844 N.am    1  UNL1       -0.2681
     25 H         142.2891  146.1040  162.4856 H       1  UNL1        0.1564
     26 H         142.3681  146.4493  159.9117 H       1  UNL1        0.1564
     27 C         141.5119  145.1535  158.4005 C.ar    1  UNL1        0.0515
     28 C         142.3221  144.0753  157.7441 C.ar    1  UNL1        0.0147
     29 C         141.9743  143.6130  156.3602 C.ar    1  UNL1        0.0012
     30 C         140.8162  144.2289  155.6326 C.ar    1  UNL1        0.0039
     31 C         140.0059  145.3071  156.2889 C.ar    1  UNL1        0.0727
     32 C         140.3537  145.7694  157.6729 C.ar    1  UNL1        0.0186
     33 C         138.8478  145.9230  155.5613 C.3     1  UNL1        0.4186
     34 F         137.6896  146.5390  154.8338 F       1  UNL1       -0.1659
     35 F         138.8109  144.7501  154.6271 F       1  UNL1       -0.1659
     36 F         138.8846  147.0959  156.4956 F       1  UNL1       -0.1659
@<TRIPOS>BOND
     1    19    20    1
     2    20     7    1
     3     7     8   ar
     4     8     9   ar
     5     9    10   ar
     6    10     1    1
     7     1     2   ar
     8     2     3   ar
     9     3     4   ar
    10     4    21    1
    11    21    22   am
    12    22    23    2
    13    22    24   am
    14    24    27    1
    15    27    28   ar
    16    28    29   ar
    17    29    30   ar
    18    30    31   ar
    19    31    33    1
    20    33    34    1
    21    33    35    1
    22    33    36    1
    23    31    32   ar
    24     4     5   ar
    25     5     6   ar
    26    10    11   ar
    27    11    12   ar
    28    12    13    1
    29    12    14   ar
    30    14    15   ar
    31    15    16   ar
    32    16     7   ar
    33     6     1   ar
    34    16    11   ar
    35    32    27   ar
    36    21    25    1
    37    24    26    1
    38    13    17    1
    39    13    18    1
@<TRIPOS>MOLECULE
*****
 36 39 0 0 0
SMALL
GASTEIGER

@<TRIPOS>ATOM
      1 C         141.7980  140.1751  164.6481 C.ar    1  UNL1        0.0003
      2 C         142.7101  139.0077  164.4133 C.ar    1  UNL1        0.0013
      3 C         143.2738  138.7595  163.0456 C.ar    1  UNL1        0.0147
      4 C         142.9254  139.6788  161.9127 C.ar    1  UNL1        0.0516
      5 C         142.0133  140.8463  162.1475 C.ar    1  UNL1        0.0147
      6 C         141.4496  141.0944  163.5153 C.ar    1  UNL1        0.0013
      7 C         140.1071  140.9195  168.7515 C.ar    1  UNL1        0.1757
      8 C         141.3579  141.6240  168.3165 C.ar    1  UNL1        0.0402
      9 C         141.9215  141.3759  166.9488 C.ar    1  UNL1        0.0034
     10 C         141.2343  140.4232  166.0159 C.ar    1  UNL1        0.0060
     11 C         139.9836  139.7186  166.4509 C.ar    1  UNL1        0.0746
     12 C         139.0937  138.7320  165.7548 C.ar    1  UNL1        0.1675
     13 N         139.2840  138.2003  164.3651 N.pl3   1  UNL1       -0.3400
     14 N         137.9801  138.3703  166.6924 N.ar    1  UNL1       -0.0622
     15 O         138.1817  139.1334  167.9679 O.2     1  UNL1       -0.3490
     16 C         139.4200  139.9668  167.8186 C.ar    1  UNL1        0.2117
     17 H         140.0502  138.4995  163.8242 H       1  UNL1        0.1438
     18 H         138.6426  137.5522  163.9939 H       1  UNL1        0.1438
     19 C         139.6056  142.5415  170.7181 C.3     1  UNL1        0.2526
     20 O         139.5436  141.1676  170.1192 O.3     1  UNL1       -0.4683
     21 N         143.4891  139.4307  160.5450 N.am    1  UNL1       -0.2681
     22 C         142.7633  138.5346  159.5859 C.2     1  UNL1        0.3082
     23 O         141.4736  137.8865  159.9944 O.2     1  UNL1       -0.2522
     24 N         143.3270  138.2864  158.2181 N.am    1  UNL1       -0.2681
     25 H         144.3355  139.8560  160.2769 H       1  UNL1        0.1564
     26 H         144.1734  138.7117  157.9500 H       1  UNL1        0.1564
     27 C         142.6011  137.3903  157.2590 C.ar    1  UNL1        0.0515
     28 C         141.5007  137.9429  156.4024 C.ar    1  UNL1        0.0147
     29 C         140.7748  137.0468  155.4433 C.ar    1  UNL1        0.0012
     30 C         141.1492  135.5979  155.3407 C.ar    1  UNL1        0.0039
     31 C         142.2495  135.0452  156.1973 C.ar    1  UNL1        0.0727
     32 C         142.9755  135.9414  157.1565 C.ar    1  UNL1        0.0186
     33 C         142.6240  133.5963  156.0948 C.3     1  UNL1        0.4186
     34 F         142.9985  132.1474  155.9922 F       1  UNL1       -0.1659
     35 F         141.2152  133.2598  155.7051 F       1  UNL1       -0.1659
     36 F         144.0328  133.9328  156.4844 F       1  UNL1       -0.1659
@<TRIPOS>BOND
     1    19    20    1
     2    20     7    1
     3     7     8   ar
     4     8     9   ar
     5     9    10   ar
     6    10     1    1
     7     1     2   ar
     8     2     3   ar
     9     3     4   ar
    10     4    21    1
    11    21    22   am
    12    22    23    2
    13    22    24   am
    14    24    27    1
    15    27    28   ar
    16    28    29   ar
    17    29    30   ar
    18    30    31   ar
    19    31    33    1
    20    33    34    1
    21    33    35    1
    22    33    36    1
    23    31    32   ar
    24     4     5   ar
    25     5     6   ar
    26    10    11   ar
    27    11    12   ar
    28    12    13    1
    29    12    14   ar
    30    14    15   ar
    31    15    16   ar
    32    16     7   ar
    33     6     1   ar
    34    16    11   ar
    35    32    27   ar
    36    21    25    1
    37    24    26    1
    38    13    17    1
    39    13    18    1
@<TRIPOS>MOLECULE
*****
 36 39 0 0 0
SMALL
GASTEIGER

@<TRIPOS>ATOM
      1 C         140.9438  139.7864  164.6865 C.ar    1  UNL1        0.0003
      2 C         140.5115  140.8951  163.7733 C.ar    1  UNL1        0.0013
      3 C         140.2432  140.6122  162.3249 C.ar    1  UNL1        0.0147
      4 C         140.4072  139.2206  161.7897 C.ar    1  UNL1        0.0516
      5 C         140.8395  138.1119  162.7029 C.ar    1  UNL1        0.0147
      6 C         141.1079  138.3948  164.1514 C.ar    1  UNL1        0.0013
      7 C         141.7489  140.6356  169.0318 C.ar    1  UNL1        0.1757
      8 C         142.8140  140.8930  168.0074 C.ar    1  UNL1        0.0402
      9 C         142.5456  140.6099  166.5591 C.ar    1  UNL1        0.0034
     10 C         141.2122  140.0695  166.1350 C.ar    1  UNL1        0.0060
     11 C         140.1471  139.8121  167.1594 C.ar    1  UNL1        0.0746
     12 C         138.7472  139.2865  167.0414 C.ar    1  UNL1        0.1675
     13 N         138.0640  138.8750  165.7710 N.pl3   1  UNL1       -0.3400
     14 N         138.1503  139.2447  168.4169 N.ar    1  UNL1       -0.0622
     15 O         139.1814  139.7445  169.3850 O.2     1  UNL1       -0.3490
     16 C         140.4155  140.0951  168.6078 C.ar    1  UNL1        0.2117
     17 H         138.5413  138.9392  164.9123 H       1  UNL1        0.1438
     18 H         137.1383  138.5406  165.7958 H       1  UNL1        0.1438
     19 C         141.1665  141.9068  171.2215 C.3     1  UNL1        0.2526
     20 O         142.0173  140.9186  170.4802 O.3     1  UNL1       -0.4683
     21 N         140.1389  138.9376  160.3413 N.am    1  UNL1       -0.2681
     22 C         141.2583  138.5046  159.4418 C.2     1  UNL1        0.3082
     23 O         142.6463  138.3545  159.9906 O.2     1  UNL1       -0.2522
     24 N         140.9900  138.2217  157.9933 N.am    1  UNL1       -0.2681
     25 H         139.2280  139.0362  159.9811 H       1  UNL1        0.1564
     26 H         140.0791  138.3202  157.6331 H       1  UNL1        0.1564
     27 C         142.1095  137.7887  157.0938 C.ar    1  UNL1        0.0515
     28 C         142.9647  138.8158  156.4130 C.ar    1  UNL1        0.0147
     29 C         144.0843  138.3828  155.5135 C.ar    1  UNL1        0.0012
     30 C         144.3486  136.9226  155.2947 C.ar    1  UNL1        0.0039
     31 C         143.4933  135.8954  155.9755 C.ar    1  UNL1        0.0727
     32 C         142.3738  136.3285  156.8750 C.ar    1  UNL1        0.0186
     33 C         143.7577  134.4352  155.7567 C.3     1  UNL1        0.4186
     34 F         144.0220  132.9749  155.5379 F       1  UNL1       -0.1659
     35 F         144.2880  134.3217  157.1552 F       1  UNL1       -0.1659
     36 F         143.2273  134.5487  154.3582 F       1  UNL1       -0.1659
@<TRIPOS>BOND
     1    19    20    1
     2    20     7    1
     3     7     8   ar
     4     8     9   ar
     5     9    10   ar
     6    10     1    1
     7     1     2   ar
     8     2     3   ar
     9     3     4   ar
    10     4    21    1
    11    21    22   am
    12    22    23    2
    13    22    24   am
    14    24    27    1
    15    27    28   ar
    16    28    29   ar
    17    29    30   ar
    18    30    31   ar
    19    31    33    1
    20    33    34    1
    21    33    35    1
    22    33    36    1
    23    31    32   ar
    24     4     5   ar
    25     5     6   ar
    26    10    11   ar
    27    11    12   ar
    28    12    13    1
    29    12    14   ar
    30    14    15   ar
    31    15    16   ar
    32    16     7   ar
    33     6     1   ar
    34    16    11   ar
    35    32    27   ar
    36    21    25    1
    37    24    26    1
    38    13    17    1
    39    13    18    1
@<TRIPOS>MOLECULE
*****
 36 39 0 0 0
SMALL
GASTEIGER

@<TRIPOS>ATOM
      1 C         140.8003  142.8673  164.8144 C.ar    1  UNL1        0.0003
      2 C         141.8456  142.3479  163.8723 C.ar    1  UNL1        0.0013
      3 C         142.1562  143.0964  162.6100 C.ar    1  UNL1        0.0147
      4 C         141.4215  144.3643  162.2899 C.ar    1  UNL1        0.0516
      5 C         140.3761  144.8837  163.2320 C.ar    1  UNL1        0.0147
      6 C         140.0655  144.1351  164.4942 C.ar    1  UNL1        0.0013
      7 C         139.8688  140.6216  168.6012 C.ar    1  UNL1        0.1757
      8 C         140.7633  141.8250  168.6435 C.ar    1  UNL1        0.0402
      9 C         141.0738  142.5735  167.3813 C.ar    1  UNL1        0.0034
     10 C         140.4897  142.1187  166.0766 C.ar    1  UNL1        0.0060
     11 C         139.5952  140.9153  166.0343 C.ar    1  UNL1        0.0746
     12 C         138.8794  140.2362  164.9045 C.ar    1  UNL1        0.1675
     13 N         138.9109  140.6522  163.4637 N.pl3   1  UNL1       -0.3400
     14 N         138.1264  139.0679  165.4686 N.ar    1  UNL1       -0.0622
     15 O         138.3769  139.0250  166.9470 O.2     1  UNL1       -0.3490
     16 C         139.2848  140.1668  167.2965 C.ar    1  UNL1        0.2117
     17 H         139.4372  141.4378  163.1896 H       1  UNL1        0.1438
     18 H         138.4052  140.1398  162.7922 H       1  UNL1        0.1438
     19 C         140.4424  140.0297  171.0650 C.3     1  UNL1        0.2526
     20 O         139.5583  139.8731  169.8634 O.3     1  UNL1       -0.4683
     21 N         141.7321  145.1128  161.0277 N.am    1  UNL1       -0.2681
     22 C         140.7942  145.0355  159.8597 C.2     1  UNL1        0.3082
     23 O         139.5455  144.2096  159.9539 O.2     1  UNL1       -0.2522
     24 N         141.1048  145.7840  158.5975 N.am    1  UNL1       -0.2681
     25 H         142.5516  145.6548  160.9658 H       1  UNL1        0.1564
     26 H         141.9243  146.3260  158.5356 H       1  UNL1        0.1564
     27 C         140.1668  145.7066  157.4295 C.ar    1  UNL1        0.0515
     28 C         139.6428  146.9650  156.8037 C.ar    1  UNL1        0.0147
     29 C         138.7048  146.8877  155.6357 C.ar    1  UNL1        0.0012
     30 C         138.2908  145.5518  155.0935 C.ar    1  UNL1        0.0039
     31 C         138.8147  144.2933  155.7193 C.ar    1  UNL1        0.0727
     32 C         139.7527  144.3707  156.8873 C.ar    1  UNL1        0.0186
     33 C         138.4007  142.9575  155.1771 C.3     1  UNL1        0.4186
     34 F         137.9866  141.6215  154.6350 F       1  UNL1       -0.1659
     35 F         138.9051  143.3516  153.8207 F       1  UNL1       -0.1659
     36 F         137.8963  142.5632  156.5336 F       1  UNL1       -0.1659
@<TRIPOS>BOND
     1    19    20    1
     2    20     7    1
     3     7     8   ar
     4     8     9   ar
     5     9    10   ar
     6    10     1    1
     7     1     2   ar
     8     2     3   ar
     9     3     4   ar
    10     4    21    1
    11    21    22   am
    12    22    23    2
    13    22    24   am
    14    24    27    1
    15    27    28   ar
    16    28    29   ar
    17    29    30   ar
    18    30    31   ar
    19    31    33    1
    20    33    34    1
    21    33    35    1
    22    33    36    1
    23    31    32   ar
    24     4     5   ar
    25     5     6   ar
    26    10    11   ar
    27    11    12   ar
    28    12    13    1
    29    12    14   ar
    30    14    15   ar
    31    15    16   ar
    32    16     7   ar
    33     6     1   ar
    34    16    11   ar
    35    32    27   ar
    36    21    25    1
    37    24    26    1
    38    13    17    1
    39    13    18    1
@<TRIPOS>MOLECULE
*****
 36 39 0 0 0
SMALL
GASTEIGER

@<TRIPOS>ATOM
      1 C         142.4380  142.0497  164.3972 C.ar    1  UNL1        0.0003
      2 C         141.4754  141.7151  163.2966 C.ar    1  UNL1        0.0013
      3 C         141.7194  142.2232  161.9066 C.ar    1  UNL1        0.0147
      4 C         142.9260  143.0659  161.6171 C.ar    1  UNL1        0.0516
      5 C         143.8887  143.4005  162.7177 C.ar    1  UNL1        0.0147
      6 C         143.6447  142.8924  164.1078 C.ar    1  UNL1        0.0013
      7 C         141.7057  140.5256  168.5675 C.ar    1  UNL1        0.1757
      8 C         141.0712  141.8072  168.1152 C.ar    1  UNL1        0.0402
      9 C         141.3153  142.3153  166.7252 C.ar    1  UNL1        0.0034
     10 C         142.1940  141.5416  165.7873 C.ar    1  UNL1        0.0060
     11 C         142.8285  140.2599  166.2396 C.ar    1  UNL1        0.0746
     12 C         143.7349  139.2884  165.5435 C.ar    1  UNL1        0.1675
     13 N         144.2370  139.4049  164.1349 N.pl3   1  UNL1       -0.3400
     14 N         144.0509  138.1799  166.5034 N.ar    1  UNL1       -0.0622
     15 O         143.3399  138.4663  167.7927 O.2     1  UNL1       -0.3490
     16 C         142.5844  139.7519  167.6297 C.ar    1  UNL1        0.2117
     17 H         143.9724  140.1738  163.5799 H       1  UNL1        0.1438
     18 H         144.8312  138.7124  163.7652 H       1  UNL1        0.1438
     19 C         142.4378  140.3303  171.0526 C.3     1  UNL1        0.2526
     20 O         141.4616  140.0175  169.9576 O.3     1  UNL1       -0.4683
     21 N         143.1700  143.5739  160.2271 N.am    1  UNL1       -0.2681
     22 C         143.8682  142.7056  159.2229 C.2     1  UNL1        0.3082
     23 O         144.3225  141.3291  159.6087 O.2     1  UNL1       -0.2522
     24 N         144.1122  143.2137  157.8328 N.am    1  UNL1       -0.2681
     25 H         142.8719  144.4774  159.9738 H       1  UNL1        0.1564
     26 H         143.8141  144.1171  157.5795 H       1  UNL1        0.1564
     27 C         144.8104  142.3453  156.8286 C.ar    1  UNL1        0.0515
     28 C         144.0384  141.3079  156.0686 C.ar    1  UNL1        0.0147
     29 C         144.7366  140.4395  155.0644 C.ar    1  UNL1        0.0012
     30 C         146.2070  140.6085  154.8203 C.ar    1  UNL1        0.0039
     31 C         146.9790  141.6459  155.5804 C.ar    1  UNL1        0.0727
     32 C         146.2808  142.5143  156.5845 C.ar    1  UNL1        0.0186
     33 C         148.4493  141.8148  155.3363 C.3     1  UNL1        0.4186
     34 F         149.9197  141.9838  155.0923 F       1  UNL1       -0.1659
     35 F         148.2645  141.3706  153.9156 F       1  UNL1       -0.1659
     36 F         148.6341  142.2590  156.7570 F       1  UNL1       -0.1659
@<TRIPOS>BOND
     1    19    20    1
     2    20     7    1
     3     7     8   ar
     4     8     9   ar
     5     9    10   ar
     6    10     1    1
     7     1     2   ar
     8     2     3   ar
     9     3     4   ar
    10     4    21    1
    11    21    22   am
    12    22    23    2
    13    22    24   am
    14    24    27    1
    15    27    28   ar
    16    28    29   ar
    17    29    30   ar
    18    30    31   ar
    19    31    33    1
    20    33    34    1
    21    33    35    1
    22    33    36    1
    23    31    32   ar
    24     4     5   ar
    25     5     6   ar
    26    10    11   ar
    27    11    12   ar
    28    12    13    1
    29    12    14   ar
    30    14    15   ar
    31    15    16   ar
    32    16     7   ar
    33     6     1   ar
    34    16    11   ar
    35    32    27   ar
    36    21    25    1
    37    24    26    1
    38    13    17    1
    39    13    18    1
@<TRIPOS>MOLECULE
*****
 36 39 0 0 0
SMALL
GASTEIGER

@<TRIPOS>ATOM
      1 C         139.7019  142.3544  164.1864 C.ar    1  UNL1        0.0003
      2 C         140.7056  141.8999  163.1686 C.ar    1  UNL1        0.0013
      3 C         140.5281  142.2659  161.7248 C.ar    1  UNL1        0.0147
      4 C         139.3470  143.0866  161.2989 C.ar    1  UNL1        0.0516
      5 C         138.3433  143.5411  162.3167 C.ar    1  UNL1        0.0147
      6 C         138.5208  143.1750  163.7605 C.ar    1  UNL1        0.0013
      7 C         140.2346  141.2562  168.5177 C.ar    1  UNL1        0.1757
      8 C         140.8545  142.5120  167.9807 C.ar    1  UNL1        0.0402
      9 C         140.6770  142.8781  166.5370 C.ar    1  UNL1        0.0034
     10 C         139.8794  141.9883  165.6302 C.ar    1  UNL1        0.0060
     11 C         139.2595  140.7324  166.1672 C.ar    1  UNL1        0.0746
     12 C         138.4263  139.6673  165.5180 C.ar    1  UNL1        0.1675
     13 N         138.0046  139.6327  164.0790 N.pl3   1  UNL1       -0.3400
     14 N         138.0890  138.6430  166.5606 N.ar    1  UNL1       -0.0622
     15 O         138.7136  139.0750  167.8541 O.2     1  UNL1       -0.3490
     16 C         139.4371  140.3663  167.6110 C.ar    1  UNL1        0.2117
     17 H         138.2774  140.3553  163.4685 H       1  UNL1        0.1438
     18 H         137.4549  138.8873  163.7449 H       1  UNL1        0.1438
     19 C         140.8190  141.9367  170.9560 C.3     1  UNL1        0.2526
     20 O         140.4122  140.8901  169.9615 O.3     1  UNL1       -0.4683
     21 N         139.1696  143.4526  159.8551 N.am    1  UNL1       -0.2681
     22 C         138.5841  142.4592  158.8959 C.2     1  UNL1        0.3082
     23 O         138.1761  141.0994  159.3805 O.2     1  UNL1       -0.2522
     24 N         138.4067  142.8253  157.4522 N.am    1  UNL1       -0.2681
     25 H         139.4374  144.3450  159.5371 H       1  UNL1        0.1564
     26 H         138.6745  143.7177  157.1341 H       1  UNL1        0.1564
     27 C         137.8212  141.8317  156.4930 C.ar    1  UNL1        0.0515
     28 C         138.7074  141.1268  155.5093 C.ar    1  UNL1        0.0147
     29 C         138.1220  140.1332  154.5501 C.ar    1  UNL1        0.0012
     30 C         136.6502  139.8445  154.5746 C.ar    1  UNL1        0.0039
     31 C         135.7640  140.5495  155.5582 C.ar    1  UNL1        0.0727
     32 C         136.3495  141.5430  156.5174 C.ar    1  UNL1        0.0186
     33 C         134.2922  140.2608  155.5827 C.3     1  UNL1        0.4186
     34 F         132.8204  139.9721  155.6070 F       1  UNL1       -0.1659
     35 F         134.3726  139.9754  157.0530 F       1  UNL1       -0.1659
     36 F         134.2118  140.5462  154.1123 F       1  UNL1       -0.1659
@<TRIPOS>BOND
     1    19    20    1
     2    20     7    1
     3     7     8   ar
     4     8     9   ar
     5     9    10   ar
     6    10     1    1
     7     1     2   ar
     8     2     3   ar
     9     3     4   ar
    10     4    21    1
    11    21    22   am
    12    22    23    2
    13    22    24   am
    14    24    27    1
    15    27    28   ar
    16    28    29   ar
    17    29    30   ar
    18    30    31   ar
    19    31    33    1
    20    33    34    1
    21    33    35    1
    22    33    36    1
    23    31    32   ar
    24     4     5   ar
    25     5     6   ar
    26    10    11   ar
    27    11    12   ar
    28    12    13    1
    29    12    14   ar
    30    14    15   ar
    31    15    16   ar
    32    16     7   ar
    33     6     1   ar
    34    16    11   ar
    35    32    27   ar
    36    21    25    1
    37    24    26    1
    38    13    17    1
    39    13    18    1
@<TRIPOS>MOLECULE
*****
 36 39 0 0 0
SMALL
GASTEIGER

@<TRIPOS>ATOM
      1 C         139.0811  140.2212  164.9205 C.ar    1  UNL1        0.0003
      2 C         138.1080  141.2570  164.4407 C.ar    1  UNL1        0.0013
      3 C         137.4521  141.1061  163.1002 C.ar    1  UNL1        0.0147
      4 C         137.7692  139.9192  162.2396 C.ar    1  UNL1        0.0516
      5 C         138.7422  138.8833  162.7193 C.ar    1  UNL1        0.0147
      6 C         139.3982  139.0343  164.0598 C.ar    1  UNL1        0.0013
      7 C         141.0488  140.6742  168.9421 C.ar    1  UNL1        0.1757
      8 C         139.7594  139.9177  168.8189 C.ar    1  UNL1        0.0402
      9 C         139.1036  139.7667  167.4785 C.ar    1  UNL1        0.0034
     10 C         139.7370  140.3722  166.2610 C.ar    1  UNL1        0.0060
     11 C         141.0264  141.1287  166.3842 C.ar    1  UNL1        0.0746
     12 C         141.8795  141.8300  165.3691 C.ar    1  UNL1        0.1675
     13 N         141.5988  141.9294  163.8989 N.pl3   1  UNL1       -0.3400
     14 N         143.0626  142.4144  166.0823 N.ar    1  UNL1       -0.0622
     15 O         142.9408  142.0743  167.5381 O.2     1  UNL1       -0.3490
     16 C         141.6823  141.2797  167.7247 C.ar    1  UNL1        0.2117
     17 H         140.7913  141.5104  163.5225 H       1  UNL1        0.1438
     18 H         142.2220  142.4136  163.3104 H       1  UNL1        0.1438
     19 C         141.4841  142.0703  171.0895 C.3     1  UNL1        0.2526
     20 O         141.7046  140.8252  170.2826 O.3     1  UNL1       -0.4683
     21 N         137.1132  139.7682  160.8991 N.am    1  UNL1       -0.2681
     22 C         137.7249  140.4082  159.6883 C.2     1  UNL1        0.3082
     23 O         138.9928  141.1993  159.8180 O.2     1  UNL1       -0.2522
     24 N         137.0689  140.2573  158.3479 N.am    1  UNL1       -0.2681
     25 H         136.2810  139.2491  160.8140 H       1  UNL1        0.1564
     26 H         136.2368  139.7381  158.2627 H       1  UNL1        0.1564
     27 C         137.6808  140.8973  157.1371 C.ar    1  UNL1        0.0515
     28 C         138.5878  140.1019  156.2457 C.ar    1  UNL1        0.0147
     29 C         139.1996  140.7419  155.0349 C.ar    1  UNL1        0.0012
     30 C         138.9045  142.1775  154.7155 C.ar    1  UNL1        0.0039
     31 C         137.9975  142.9729  155.6069 C.ar    1  UNL1        0.0727
     32 C         137.3857  142.3329  156.8177 C.ar    1  UNL1        0.0186
     33 C         137.7024  144.4085  155.2875 C.3     1  UNL1        0.4186
     34 F         137.4072  145.8441  154.9680 F       1  UNL1       -0.1659
     35 F         138.8037  144.8402  156.2098 F       1  UNL1       -0.1659
     36 F         136.6011  143.9769  154.3652 F       1  UNL1       -0.1659
@<TRIPOS>BOND
     1    19    20    1
     2    20     7    1
     3     7     8   ar
     4     8     9   ar
     5     9    10   ar
     6    10     1    1
     7     1     2   ar
     8     2     3   ar
     9     3     4   ar
    10     4    21    1
    11    21    22   am
    12    22    23    2
    13    22    24   am
    14    24    27    1
    15    27    28   ar
    16    28    29   ar
    17    29    30   ar
    18    30    31   ar
    19    31    33    1
    20    33    34    1
    21    33    35    1
    22    33    36    1
    23    31    32   ar
    24     4     5   ar
    25     5     6   ar
    26    10    11   ar
    27    11    12   ar
    28    12    13    1
    29    12    14   ar
    30    14    15   ar
    31    15    16   ar
    32    16     7   ar
    33     6     1   ar
    34    16    11   ar
    35    32    27   ar
    36    21    25    1
    37    24    26    1
    38    13    17    1
    39    13    18    1
@<TRIPOS>MOLECULE
*****
 36 39 0 0 0
SMALL
GASTEIGER

@<TRIPOS>ATOM
      1 C         140.5751  143.0511  165.5356 C.ar    1  UNL1        0.0003
      2 C         141.9083  142.9254  164.8597 C.ar    1  UNL1        0.0013
      3 C         142.2198  143.7620  163.6543 C.ar    1  UNL1        0.0147
      4 C         141.1982  144.7242  163.1248 C.ar    1  UNL1        0.0516
      5 C         139.8650  144.8498  163.8007 C.ar    1  UNL1        0.0147
      6 C         139.5535  144.0133  165.0061 C.ar    1  UNL1        0.0013
      7 C         139.6407  140.5415  169.1521 C.ar    1  UNL1        0.1757
      8 C         140.3669  141.8443  169.3106 C.ar    1  UNL1        0.0402
      9 C         140.6783  142.6808  168.1052 C.ar    1  UNL1        0.0034
     10 C         140.2636  142.2145  166.7411 C.ar    1  UNL1        0.0060
     11 C         139.5374  140.9116  166.5826 C.ar    1  UNL1        0.0746
     12 C         139.0071  140.1987  165.3741 C.ar    1  UNL1        0.1675
     13 N         139.0998  140.6787  163.9560 N.pl3   1  UNL1       -0.3400
     14 N         138.3679  138.9216  165.8327 N.ar    1  UNL1       -0.0622
     15 O         138.5031  138.8452  167.3246 O.2     1  UNL1       -0.3490
     16 C         139.2259  140.0751  167.7881 C.ar    1  UNL1        0.2117
     17 H         139.5410  141.5353  163.7540 H       1  UNL1        0.1438
     18 H         138.7194  140.1371  163.2271 H       1  UNL1        0.1438
     19 C         140.3078  139.6305  171.4920 C.3     1  UNL1        0.2526
     20 O         139.3292  139.7049  170.3576 O.3     1  UNL1       -0.4683
     21 N         141.5098  145.5607  161.9193 N.am    1  UNL1       -0.2681
     22 C         141.3353  144.9886  160.5439 C.2     1  UNL1        0.3082
     23 O         140.8492  143.5797  160.3737 O.2     1  UNL1       -0.2522
     24 N         141.6469  145.8251  159.3384 N.am    1  UNL1       -0.2681
     25 H         141.8288  146.4854  162.0310 H       1  UNL1        0.1564
     26 H         141.9659  146.7498  159.4500 H       1  UNL1        0.1564
     27 C         141.4724  145.2528  157.9629 C.ar    1  UNL1        0.0515
     28 C         140.2188  145.5319  157.1879 C.ar    1  UNL1        0.0147
     29 C         140.0442  144.9596  155.8124 C.ar    1  UNL1        0.0012
     30 C         141.1233  144.1083  155.2118 C.ar    1  UNL1        0.0039
     31 C         142.3769  143.8292  155.9868 C.ar    1  UNL1        0.0727
     32 C         142.5515  144.4015  157.3623 C.ar    1  UNL1        0.0186
     33 C         143.4560  142.9779  155.3862 C.3     1  UNL1        0.4186
     34 F         144.5351  142.1264  154.7856 F       1  UNL1       -0.1659
     35 F         143.6784  144.0107  154.3215 F       1  UNL1       -0.1659
     36 F         143.2337  141.9449  156.4509 F       1  UNL1       -0.1659
@<TRIPOS>BOND
     1    19    20    1
     2    20     7    1
     3     7     8   ar
     4     8     9   ar
     5     9    10   ar
     6    10     1    1
     7     1     2   ar
     8     2     3   ar
     9     3     4   ar
    10     4    21    1
    11    21    22   am
    12    22    23    2
    13    22    24   am
    14    24    27    1
    15    27    28   ar
    16    28    29   ar
    17    29    30   ar
    18    30    31   ar
    19    31    33    1
    20    33    34    1
    21    33    35    1
    22    33    36    1
    23    31    32   ar
    24     4     5   ar
    25     5     6   ar
    26    10    11   ar
    27    11    12   ar
    28    12    13    1
    29    12    14   ar
    30    14    15   ar
    31    15    16   ar
    32    16     7   ar
    33     6     1   ar
    34    16    11   ar
    35    32    27   ar
    36    21    25    1
    37    24    26    1
    38    13    17    1
    39    13    18    1
@<TRIPOS>MOLECULE
*****
 36 39 0 0 0
SMALL
GASTEIGER

@<TRIPOS>ATOM
      1 C         141.5735  141.5117  159.9345 C.ar    1  UNL1        0.0003
      2 C         141.5518  141.8372  158.4704 C.ar    1  UNL1        0.0013
      3 C         142.3128  140.9823  157.5007 C.ar    1  UNL1        0.0147
      4 C         143.0953  139.8021  157.9953 C.ar    1  UNL1        0.0516
      5 C         143.1169  139.4766  159.4593 C.ar    1  UNL1        0.0147
      6 C         142.3560  140.3314  160.4290 C.ar    1  UNL1        0.0013
      7 C         139.2904  144.0763  162.8433 C.ar    1  UNL1        0.1757
      8 C         138.5787  143.0103  162.0642 C.ar    1  UNL1        0.0402
      9 C         139.3396  142.1555  161.0947 C.ar    1  UNL1        0.0034
     10 C         140.8125  142.3666  160.9041 C.ar    1  UNL1        0.0060
     11 C         141.5242  143.4326  161.6832 C.ar    1  UNL1        0.0746
     12 C         142.9589  143.8697  161.7068 C.ar    1  UNL1        0.1675
     13 N         144.0724  143.2846  160.8897 N.pl3   1  UNL1       -0.3400
     14 N         143.0846  144.9947  162.6909 N.ar    1  UNL1       -0.0622
     15 O         141.7276  145.2529  163.2756 O.2     1  UNL1       -0.3490
     16 C         140.7632  144.2875  162.6528 C.ar    1  UNL1        0.2117
     17 H         143.8897  142.5438  160.2675 H       1  UNL1        0.1438
     18 H         144.9860  143.6413  160.9755 H       1  UNL1        0.1438
     19 C         138.7403  144.7616  165.2882 C.3     1  UNL1        0.2526
     20 O         138.5294  144.9312  163.8129 O.3     1  UNL1       -0.4683
     21 N         143.8562  138.9472  157.0256 N.am    1  UNL1       -0.2681
     22 C         143.3421  137.5858  156.6621 C.2     1  UNL1        0.3082
     23 O         142.0670  137.0791  157.2683 O.2     1  UNL1       -0.2522
     24 N         144.1030  136.7310  155.6924 N.am    1  UNL1       -0.2681
     25 H         144.6931  139.2798  156.6277 H       1  UNL1        0.1564
     26 H         144.9399  137.0635  155.2945 H       1  UNL1        0.1564
     27 C         143.5889  135.3696  155.3290 C.ar    1  UNL1        0.0515
     28 C         142.6521  135.2067  154.1689 C.ar    1  UNL1        0.0147
     29 C         142.1379  133.8452  153.8054 C.ar    1  UNL1        0.0012
     30 C         142.5606  132.6466  154.6021 C.ar    1  UNL1        0.0039
     31 C         143.4974  132.8095  155.7621 C.ar    1  UNL1        0.0727
     32 C         144.0116  134.1709  156.1256 C.ar    1  UNL1        0.0186
     33 C         143.9201  131.6108  156.5587 C.3     1  UNL1        0.4186
     34 F         144.3428  130.4122  157.3553 F       1  UNL1       -0.1659
     35 F         142.5806  131.5867  157.2331 F       1  UNL1       -0.1659
     36 F         145.2597  131.6350  155.8843 F       1  UNL1       -0.1659
@<TRIPOS>BOND
     1    19    20    1
     2    20     7    1
     3     7     8   ar
     4     8     9   ar
     5     9    10   ar
     6    10     1    1
     7     1     2   ar
     8     2     3   ar
     9     3     4   ar
    10     4    21    1
    11    21    22   am
    12    22    23    2
    13    22    24   am
    14    24    27    1
    15    27    28   ar
    16    28    29   ar
    17    29    30   ar
    18    30    31   ar
    19    31    33    1
    20    33    34    1
    21    33    35    1
    22    33    36    1
    23    31    32   ar
    24     4     5   ar
    25     5     6   ar
    26    10    11   ar
    27    11    12   ar
    28    12    13    1
    29    12    14   ar
    30    14    15   ar
    31    15    16   ar
    32    16     7   ar
    33     6     1   ar
    34    16    11   ar
    35    32    27   ar
    36    21    25    1
    37    24    26    1
    38    13    17    1
    39    13    18    1
