@<TRIPOS>MOLECULE
*****
 31 34 0 0 0
SMALL
GASTEIGER

@<TRIPOS>ATOM
      1 C         142.0449  144.1985  161.3370 C.3     1  UNL1        0.0212
      2 C         142.8135  144.6987  162.5240 C.3     1  UNL1        0.0723
      3 N         142.7762  142.3684  166.3734 N.pl3   1  UNL1       -0.3023
      4 C         144.0760  142.8526  165.8024 C.3     1  UNL1        0.1082
      5 C         144.0884  143.6293  164.5193 C.3     1  UNL1        0.0938
      6 N         142.8011  143.9219  163.8072 N.3     1  UNL1       -0.2698
      7 C         141.5013  143.4377  164.3782 C.3     1  UNL1        0.0938
      8 C         141.4888  142.6610  165.6614 C.3     1  UNL1        0.1082
      9 C         142.4970  140.1157  167.6373 C.ar    1  UNL1        0.1519
     10 C         142.4846  139.3389  168.9205 C.ar    1  UNL1        0.0382
     11 C         142.7389  140.0381  170.2230 C.ar    1  UNL1        0.0032
     12 C         143.0057  141.5141  170.2423 C.ar    1  UNL1        0.0015
     13 C         143.0181  142.2908  168.9591 C.ar    1  UNL1        0.0176
     14 C         142.7637  141.5916  167.6566 C.ar    1  UNL1        0.0824
     15 C         143.3911  138.8653  165.5427 C.3     1  UNL1        0.2525
     16 O         142.2426  139.4165  166.3349 O.3     1  UNL1       -0.4702
     17 C         140.7480  144.8482  160.9553 C.3     1  UNL1        0.0488
     18 C         139.6218  144.0159  160.4176 C.3     1  UNL1        0.2054
     19 O         138.4469  143.6895  161.2912 O.3     1  UNL1       -0.4754
     20 C         138.5232  142.5403  162.2522 C.ar    1  UNL1        0.1416
     21 C         137.7715  142.5959  163.5490 C.ar    1  UNL1        0.0371
     22 C         137.8478  141.4467  164.5100 C.ar    1  UNL1        0.0058
     23 C         138.6759  140.2419  164.1741 C.ar    1  UNL1        0.0311
     24 C         138.7522  139.0927  165.1352 C.ar    1  UNL1       -0.0125
     25 C         138.0004  139.1483  166.4320 C.3     1  UNL1        0.0313
     26 C         139.5802  137.8879  164.7994 C.ar    1  UNL1        0.0781
     27 C         140.3320  137.8323  163.5025 C.ar    1  UNL1        0.3456
     28 O         141.1600  136.6275  163.1666 O.2     1  UNL1       -0.2445
     29 O         140.2557  138.9815  162.5415 O.2     1  UNL1       -0.4209
     30 C         139.4276  140.1863  162.8773 C.ar    1  UNL1        0.1514
     31 C         139.3513  141.3355  161.9164 C.ar    1  UNL1        0.0744
@<TRIPOS>BOND
     1    15    16    1
     2    16     9    1
     3     9    10   ar
     4    10    11   ar
     5    11    12   ar
     6    12    13   ar
     7    13    14   ar
     8    14     3    1
     9     3     4    1
    10     4     5    1
    11     5     6    1
    12     6     2    1
    13     2     1    1
    14     1    17    1
    15    17    18    1
    16    18    19    1
    17    19    20    1
    18    20    21   ar
    19    21    22   ar
    20    22    23   ar
    21    23    24   ar
    22    24    25    1
    23    24    26   ar
    24    26    27   ar
    25    27    28    2
    26    27    29   ar
    27    29    30   ar
    28    30    31   ar
    29     6     7    1
    30     7     8    1
    31    14     9   ar
    32     8     3    1
    33    31    20   ar
    34    30    23   ar
@<TRIPOS>MOLECULE
*****
 31 34 0 0 0
SMALL
GASTEIGER

@<TRIPOS>ATOM
      1 C         141.1450  138.3538  160.6039 C.3     1  UNL1        0.0212
      2 C         141.8078  139.4813  161.3384 C.3     1  UNL1        0.0723
      3 N         141.4978  139.7373  165.8204 N.pl3   1  UNL1       -0.3023
      4 C         141.5852  138.3984  165.1499 C.3     1  UNL1        0.1082
      5 C         141.6886  138.3130  163.6559 C.3     1  UNL1        0.0938
      6 N         141.7044  139.5666  162.8325 N.3     1  UNL1       -0.2698
      7 C         141.6169  140.9056  163.5029 C.3     1  UNL1        0.0938
      8 C         141.5136  140.9909  164.9969 C.3     1  UNL1        0.1082
      9 C         140.0496  139.9443  167.9675 C.ar    1  UNL1        0.1519
     10 C         139.9462  140.0296  169.4615 C.ar    1  UNL1        0.0382
     11 C         141.1878  139.9933  170.3025 C.ar    1  UNL1        0.0032
     12 C         142.5327  139.8716  169.6493 C.ar    1  UNL1        0.0015
     13 C         142.6360  139.7863  168.1554 C.ar    1  UNL1        0.0176
     14 C         141.3944  139.8226  167.3144 C.ar    1  UNL1        0.0824
     15 C         137.9789  138.7417  166.9592 C.3     1  UNL1        0.2525
     16 O         138.8080  139.9806  167.1265 O.3     1  UNL1       -0.4702
     17 C         139.6645  138.3821  160.3648 C.3     1  UNL1        0.0488
     18 C         138.7196  137.9976  161.4646 C.3     1  UNL1        0.2054
     19 O         137.5991  138.9187  161.8468 O.3     1  UNL1       -0.4754
     20 C         137.9011  140.3016  162.3432 C.ar    1  UNL1        0.1416
     21 C         137.7717  140.6192  163.8035 C.ar    1  UNL1        0.0371
     22 C         138.0738  142.0021  164.2998 C.ar    1  UNL1        0.0058
     23 C         138.5051  143.0673  163.3359 C.ar    1  UNL1        0.0311
     24 C         138.8071  144.4503  163.8323 C.ar    1  UNL1       -0.0125
     25 C         138.6778  144.7679  165.2926 C.3     1  UNL1        0.0313
     26 C         139.2385  145.5156  162.8684 C.ar    1  UNL1        0.0781
     27 C         139.3679  145.1979  161.4081 C.ar    1  UNL1        0.3456
     28 O         139.7993  146.2632  160.4442 O.2     1  UNL1       -0.2445
     29 O         139.0659  143.8150  160.9118 O.2     1  UNL1       -0.4209
     30 C         138.6345  142.7497  161.8757 C.ar    1  UNL1        0.1514
     31 C         138.3325  141.3669  161.3793 C.ar    1  UNL1        0.0744
@<TRIPOS>BOND
     1    15    16    1
     2    16     9    1
     3     9    10   ar
     4    10    11   ar
     5    11    12   ar
     6    12    13   ar
     7    13    14   ar
     8    14     3    1
     9     3     4    1
    10     4     5    1
    11     5     6    1
    12     6     2    1
    13     2     1    1
    14     1    17    1
    15    17    18    1
    16    18    19    1
    17    19    20    1
    18    20    21   ar
    19    21    22   ar
    20    22    23   ar
    21    23    24   ar
    22    24    25    1
    23    24    26   ar
    24    26    27   ar
    25    27    28    2
    26    27    29   ar
    27    29    30   ar
    28    30    31   ar
    29     6     7    1
    30     7     8    1
    31    14     9   ar
    32     8     3    1
    33    31    20   ar
    34    30    23   ar
@<TRIPOS>MOLECULE
*****
 31 34 0 0 0
SMALL
GASTEIGER

@<TRIPOS>ATOM
      1 C         141.1142  145.4666  159.5064 C.3     1  UNL1        0.0212
      2 C         141.2299  144.0045  159.1921 C.3     1  UNL1        0.0723
      3 N         142.0055  141.0476  162.4944 N.pl3   1  UNL1       -0.3023
      4 C         140.8473  140.8449  161.5629 C.3     1  UNL1        0.1082
      5 C         140.5888  141.8305  160.4621 C.3     1  UNL1        0.0938
      6 N         141.4884  143.0188  160.2929 N.3     1  UNL1       -0.2698
      7 C         142.6465  143.2215  161.2244 C.3     1  UNL1        0.0938
      8 C         142.9050  142.2359  162.3251 C.3     1  UNL1        0.1082
      9 C         141.2832  138.9582  163.8592 C.ar    1  UNL1        0.1519
     10 C         141.5417  137.9725  164.9600 C.ar    1  UNL1        0.0382
     11 C         142.7810  138.0906  165.7967 C.ar    1  UNL1        0.0032
     12 C         143.7618  139.1944  165.5326 C.ar    1  UNL1        0.0015
     13 C         143.5033  140.1800  164.4319 C.ar    1  UNL1        0.0176
     14 C         142.2640  140.0619  163.5951 C.ar    1  UNL1        0.0824
     15 C         139.1526  137.6422  163.1672 C.3     1  UNL1        0.2525
     16 O         140.0439  138.8400  163.0224 O.3     1  UNL1       -0.4702
     17 C         139.9521  145.9714  160.3093 C.3     1  UNL1        0.0488
     18 C         139.8593  145.6580  161.7733 C.3     1  UNL1        0.2054
     19 O         138.8834  144.6280  162.2595 O.3     1  UNL1       -0.4754
     20 C         139.2420  143.7414  163.4152 C.ar    1  UNL1        0.1416
     21 C         140.4196  144.0778  164.2812 C.ar    1  UNL1        0.0371
     22 C         140.7782  143.1912  165.4368 C.ar    1  UNL1        0.0058
     23 C         139.9592  141.9683  165.7263 C.ar    1  UNL1        0.0311
     24 C         140.3179  141.0818  166.8820 C.ar    1  UNL1       -0.0125
     25 C         141.4955  141.4181  167.7480 C.3     1  UNL1        0.0313
     26 C         139.4989  139.8589  167.1715 C.ar    1  UNL1        0.0781
     27 C         138.3213  139.5225  166.3053 C.ar    1  UNL1        0.3456
     28 O         137.5023  138.2997  166.5948 O.2     1  UNL1       -0.2445
     29 O         137.9627  140.4091  165.1497 O.2     1  UNL1       -0.4209
     30 C         138.7817  141.6320  164.8602 C.ar    1  UNL1        0.1514
     31 C         138.4231  142.5185  163.7047 C.ar    1  UNL1        0.0744
@<TRIPOS>BOND
     1    15    16    1
     2    16     9    1
     3     9    10   ar
     4    10    11   ar
     5    11    12   ar
     6    12    13   ar
     7    13    14   ar
     8    14     3    1
     9     3     4    1
    10     4     5    1
    11     5     6    1
    12     6     2    1
    13     2     1    1
    14     1    17    1
    15    17    18    1
    16    18    19    1
    17    19    20    1
    18    20    21   ar
    19    21    22   ar
    20    22    23   ar
    21    23    24   ar
    22    24    25    1
    23    24    26   ar
    24    26    27   ar
    25    27    28    2
    26    27    29   ar
    27    29    30   ar
    28    30    31   ar
    29     6     7    1
    30     7     8    1
    31    14     9   ar
    32     8     3    1
    33    31    20   ar
    34    30    23   ar
@<TRIPOS>MOLECULE
*****
 31 34 0 0 0
SMALL
GASTEIGER

@<TRIPOS>ATOM
      1 C         144.3022  140.3513  162.0393 C.3     1  UNL1        0.0212
      2 C         144.9105  140.7128  163.3618 C.3     1  UNL1        0.0723
      3 N         142.3965  140.6282  167.0931 N.pl3   1  UNL1       -0.3023
      4 C         142.7816  139.3447  166.4190 C.3     1  UNL1        0.1082
      5 C         143.6197  139.3729  165.1753 C.3     1  UNL1        0.0938
      6 N         144.0725  140.6845  164.6056 N.3     1  UNL1       -0.2698
      7 C         143.6873  141.9680  165.2797 C.3     1  UNL1        0.0938
      8 C         142.8493  141.9398  166.5234 C.3     1  UNL1        0.1082
      9 C         142.1966  140.8200  169.6764 C.ar    1  UNL1        0.1519
     10 C         141.3585  140.7918  170.9202 C.ar    1  UNL1        0.0382
     11 C         139.8823  140.5435  170.8244 C.ar    1  UNL1        0.0032
     12 C         139.2441  140.3235  169.4848 C.ar    1  UNL1        0.0015
     13 C         140.0822  140.3517  168.2411 C.ar    1  UNL1        0.0176
     14 C         141.5584  140.6000  168.3369 C.ar    1  UNL1        0.0824
     15 C         144.1894  142.4679  169.9273 C.3     1  UNL1        0.2525
     16 O         143.6728  141.0682  169.7722 O.3     1  UNL1       -0.4702
     17 C         144.4284  138.9524  161.5130 C.3     1  UNL1        0.0488
     18 C         143.4245  138.4275  160.5297 C.3     1  UNL1        0.2054
     19 O         142.3078  137.5424  160.9982 O.3     1  UNL1       -0.4754
     20 C         141.3319  138.0440  162.0209 C.ar    1  UNL1        0.1416
     21 C         140.9471  137.1738  163.1805 C.ar    1  UNL1        0.0371
     22 C         139.9712  137.6754  164.2032 C.ar    1  UNL1        0.0058
     23 C         139.3801  139.0472  164.0663 C.ar    1  UNL1        0.0311
     24 C         138.4041  139.5487  165.0891 C.ar    1  UNL1       -0.0125
     25 C         138.0193  138.6785  166.2487 C.3     1  UNL1        0.0313
     26 C         137.8130  140.9205  164.9522 C.ar    1  UNL1        0.0781
     27 C         138.1978  141.7907  163.7926 C.ar    1  UNL1        0.3456
     28 O         137.6066  143.1625  163.6557 O.2     1  UNL1       -0.2445
     29 O         139.1737  141.2892  162.7699 O.2     1  UNL1       -0.4209
     30 C         139.7648  139.9174  162.9068 C.ar    1  UNL1        0.1514
     31 C         140.7407  139.4158  161.8841 C.ar    1  UNL1        0.0744
@<TRIPOS>BOND
     1    15    16    1
     2    16     9    1
     3     9    10   ar
     4    10    11   ar
     5    11    12   ar
     6    12    13   ar
     7    13    14   ar
     8    14     3    1
     9     3     4    1
    10     4     5    1
    11     5     6    1
    12     6     2    1
    13     2     1    1
    14     1    17    1
    15    17    18    1
    16    18    19    1
    17    19    20    1
    18    20    21   ar
    19    21    22   ar
    20    22    23   ar
    21    23    24   ar
    22    24    25    1
    23    24    26   ar
    24    26    27   ar
    25    27    28    2
    26    27    29   ar
    27    29    30   ar
    28    30    31   ar
    29     6     7    1
    30     7     8    1
    31    14     9   ar
    32     8     3    1
    33    31    20   ar
    34    30    23   ar
@<TRIPOS>MOLECULE
*****
 31 34 0 0 0
SMALL
GASTEIGER

@<TRIPOS>ATOM
      1 C         140.2290  145.3959  159.7133 C.3     1  UNL1        0.0212
      2 C         141.5612  144.7207  159.8520 C.3     1  UNL1        0.0723
      3 N         142.0797  141.3479  162.7855 N.pl3   1  UNL1       -0.3023
      4 C         141.0077  141.2735  161.7389 C.3     1  UNL1        0.1082
      5 C         140.8349  142.3977  160.7611 C.3     1  UNL1        0.0938
      6 N         141.7340  143.5963  160.8298 N.3     1  UNL1       -0.2698
      7 C         142.8060  143.6707  161.8764 C.3     1  UNL1        0.0938
      8 C         142.9789  142.5465  162.8542 C.3     1  UNL1        0.1082
      9 C         141.4389  138.9718  163.6183 C.ar    1  UNL1        0.1519
     10 C         141.6118  137.8474  164.5962 C.ar    1  UNL1        0.0382
     11 C         142.5982  137.9750  165.7190 C.ar    1  UNL1        0.0032
     12 C         143.4118  139.2268  165.8639 C.ar    1  UNL1        0.0015
     13 C         143.2390  140.3511  164.8861 C.ar    1  UNL1        0.0176
     14 C         142.2525  140.2235  163.7633 C.ar    1  UNL1        0.0824
     15 C         139.1934  138.0522  162.6897 C.3     1  UNL1        0.2525
     16 O         140.4525  138.8442  162.4955 O.3     1  UNL1       -0.4702
     17 C         139.7073  146.2603  160.8227 C.3     1  UNL1        0.0488
     18 C         139.5040  145.6821  162.1918 C.3     1  UNL1        0.2054
     19 O         138.3924  144.7050  162.4358 O.3     1  UNL1       -0.4754
     20 C         138.5851  143.5764  163.4051 C.ar    1  UNL1        0.1416
     21 C         137.7408  142.3415  163.2957 C.ar    1  UNL1        0.0371
     22 C         137.9335  141.2130  164.2649 C.ar    1  UNL1        0.0058
     23 C         138.9705  141.3195  165.3435 C.ar    1  UNL1        0.0311
     24 C         139.1632  140.1910  166.3127 C.ar    1  UNL1       -0.0125
     25 C         138.3189  138.9560  166.2034 C.3     1  UNL1        0.0313
     26 C         140.2002  140.2975  167.3913 C.ar    1  UNL1        0.0781
     27 C         141.0445  141.5326  167.5006 C.ar    1  UNL1        0.3456
     28 O         142.0815  141.6391  168.5792 O.2     1  UNL1       -0.2445
     29 O         140.8518  142.6610  166.5314 O.2     1  UNL1       -0.4209
     30 C         139.8148  142.5545  165.4528 C.ar    1  UNL1        0.1514
     31 C         139.6221  143.6829  164.4836 C.ar    1  UNL1        0.0744
@<TRIPOS>BOND
     1    15    16    1
     2    16     9    1
     3     9    10   ar
     4    10    11   ar
     5    11    12   ar
     6    12    13   ar
     7    13    14   ar
     8    14     3    1
     9     3     4    1
    10     4     5    1
    11     5     6    1
    12     6     2    1
    13     2     1    1
    14     1    17    1
    15    17    18    1
    16    18    19    1
    17    19    20    1
    18    20    21   ar
    19    21    22   ar
    20    22    23   ar
    21    23    24   ar
    22    24    25    1
    23    24    26   ar
    24    26    27   ar
    25    27    28    2
    26    27    29   ar
    27    29    30   ar
    28    30    31   ar
    29     6     7    1
    30     7     8    1
    31    14     9   ar
    32     8     3    1
    33    31    20   ar
    34    30    23   ar
@<TRIPOS>MOLECULE
*****
 31 34 0 0 0
SMALL
GASTEIGER

@<TRIPOS>ATOM
      1 C         143.9118  138.3333  162.1697 C.3     1  UNL1        0.0212
      2 C         144.4870  139.2504  163.2079 C.3     1  UNL1        0.0723
      3 N         142.0505  140.3664  166.8229 N.pl3   1  UNL1       -0.3023
      4 C         141.9546  141.1874  165.5712 C.3     1  UNL1        0.1082
      5 C         142.7668  140.8155  164.3662 C.3     1  UNL1        0.0938
      6 N         143.6748  139.6224  164.4129 N.3     1  UNL1       -0.2698
      7 C         143.7706  138.8014  165.6646 C.3     1  UNL1        0.0938
      8 C         142.9584  139.1733  166.8696 C.3     1  UNL1        0.1082
      9 C         141.7294  141.8024  168.9641 C.ar    1  UNL1        0.1519
     10 C         140.9172  142.1745  170.1691 C.ar    1  UNL1        0.0382
     11 C         139.6138  141.4824  170.4378 C.ar    1  UNL1        0.0032
     12 C         139.1226  140.4183  169.5015 C.ar    1  UNL1        0.0015
     13 C         139.9348  140.0463  168.2966 C.ar    1  UNL1        0.0176
     14 C         141.2382  140.7384  168.0279 C.ar    1  UNL1        0.0824
     15 C         144.1079  142.5014  169.7414 C.3     1  UNL1        0.2525
     16 O         143.0328  142.4945  168.6953 O.3     1  UNL1       -0.4702
     17 C         143.6907  138.8286  160.7712 C.3     1  UNL1        0.0488
     18 C         142.7807  138.0779  159.8447 C.3     1  UNL1        0.2054
     19 O         141.3351  138.4635  159.7380 O.3     1  UNL1       -0.4754
     20 C         140.6102  138.9960  160.9385 C.ar    1  UNL1        0.1416
     21 C         140.3121  140.4622  161.0453 C.ar    1  UNL1        0.0371
     22 C         139.5873  140.9946  162.2458 C.ar    1  UNL1        0.0058
     23 C         139.1606  140.0608  163.3394 C.ar    1  UNL1        0.0311
     24 C         138.4358  140.5933  164.5399 C.ar    1  UNL1       -0.0125
     25 C         138.1377  142.0595  164.6467 C.3     1  UNL1        0.0313
     26 C         138.0090  139.6596  165.6335 C.ar    1  UNL1        0.0781
     27 C         138.3071  138.1933  165.5266 C.ar    1  UNL1        0.3456
     28 O         137.8804  137.2596  166.6203 O.2     1  UNL1       -0.2445
     29 O         139.0319  137.6609  164.3262 O.2     1  UNL1       -0.4209
     30 C         139.4587  138.5947  163.2326 C.ar    1  UNL1        0.1514
     31 C         140.1835  138.0623  162.0321 C.ar    1  UNL1        0.0744
@<TRIPOS>BOND
     1    15    16    1
     2    16     9    1
     3     9    10   ar
     4    10    11   ar
     5    11    12   ar
     6    12    13   ar
     7    13    14   ar
     8    14     3    1
     9     3     4    1
    10     4     5    1
    11     5     6    1
    12     6     2    1
    13     2     1    1
    14     1    17    1
    15    17    18    1
    16    18    19    1
    17    19    20    1
    18    20    21   ar
    19    21    22   ar
    20    22    23   ar
    21    23    24   ar
    22    24    25    1
    23    24    26   ar
    24    26    27   ar
    25    27    28    2
    26    27    29   ar
    27    29    30   ar
    28    30    31   ar
    29     6     7    1
    30     7     8    1
    31    14     9   ar
    32     8     3    1
    33    31    20   ar
    34    30    23   ar
@<TRIPOS>MOLECULE
*****
 31 34 0 0 0
SMALL
GASTEIGER

@<TRIPOS>ATOM
      1 C         144.7398  142.2669  161.3794 C.3     1  UNL1        0.0212
      2 C         144.5563  143.1866  162.5501 C.3     1  UNL1        0.0723
      3 N         142.4393  141.7310  166.2446 N.pl3   1  UNL1       -0.3023
      4 C         143.5917  142.6833  166.3667 C.3     1  UNL1        0.1082
      5 C         144.2974  143.1685  165.1352 C.3     1  UNL1        0.0938
      6 N         143.8506  142.7014  163.7817 N.3     1  UNL1       -0.2698
      7 C         142.6982  141.7490  163.6596 C.3     1  UNL1        0.0938
      8 C         141.9925  141.2638  164.8911 C.3     1  UNL1        0.1082
      9 C         142.2028  140.0002  168.1678 C.ar    1  UNL1        0.1519
     10 C         141.4971  139.5150  169.3993 C.ar    1  UNL1        0.0382
     11 C         140.3223  140.2755  169.9393 C.ar    1  UNL1        0.0032
     12 C         139.8532  141.5212  169.2477 C.ar    1  UNL1        0.0015
     13 C         140.5589  142.0063  168.0162 C.ar    1  UNL1        0.0176
     14 C         141.7336  141.2458  167.4762 C.ar    1  UNL1        0.0824
     15 C         143.1993  138.3130  166.4617 C.3     1  UNL1        0.2525
     16 O         143.3775  139.2397  167.6278 O.3     1  UNL1       -0.4702
     17 C         144.7179  142.8159  159.9837 C.3     1  UNL1        0.0488
     18 C         143.4080  143.0759  159.3005 C.3     1  UNL1        0.2054
     19 O         142.4813  144.1291  159.8314 O.3     1  UNL1       -0.4754
     20 C         141.3702  143.7491  160.7649 C.ar    1  UNL1        0.1416
     21 C         140.5488  142.5237  160.4936 C.ar    1  UNL1        0.0371
     22 C         139.4379  142.1437  161.4270 C.ar    1  UNL1        0.0058
     23 C         139.1483  142.9892  162.6318 C.ar    1  UNL1        0.0311
     24 C         138.0373  142.6092  163.5652 C.ar    1  UNL1       -0.0125
     25 C         137.2159  141.3838  163.2940 C.3     1  UNL1        0.0313
     26 C         137.7477  143.4546  164.7699 C.ar    1  UNL1        0.0781
     27 C         138.5692  144.6801  165.0412 C.ar    1  UNL1        0.3456
     28 O         138.2796  145.5256  166.2459 O.2     1  UNL1       -0.2445
     29 O         139.6801  145.0601  164.1077 O.2     1  UNL1       -0.4209
     30 C         139.9697  144.2146  162.9030 C.ar    1  UNL1        0.1514
     31 C         141.0807  144.5945  161.9696 C.ar    1  UNL1        0.0744
@<TRIPOS>BOND
     1    15    16    1
     2    16     9    1
     3     9    10   ar
     4    10    11   ar
     5    11    12   ar
     6    12    13   ar
     7    13    14   ar
     8    14     3    1
     9     3     4    1
    10     4     5    1
    11     5     6    1
    12     6     2    1
    13     2     1    1
    14     1    17    1
    15    17    18    1
    16    18    19    1
    17    19    20    1
    18    20    21   ar
    19    21    22   ar
    20    22    23   ar
    21    23    24   ar
    22    24    25    1
    23    24    26   ar
    24    26    27   ar
    25    27    28    2
    26    27    29   ar
    27    29    30   ar
    28    30    31   ar
    29     6     7    1
    30     7     8    1
    31    14     9   ar
    32     8     3    1
    33    31    20   ar
    34    30    23   ar
@<TRIPOS>MOLECULE
*****
 31 34 0 0 0
SMALL
GASTEIGER

@<TRIPOS>ATOM
      1 C         144.1934  143.6530  162.0889 C.3     1  UNL1        0.0212
      2 C         143.3243  144.4834  162.9861 C.3     1  UNL1        0.0723
      3 N         141.2391  142.5792  166.4898 N.pl3   1  UNL1       -0.3023
      4 C         140.4657  143.4362  165.5320 C.3     1  UNL1        0.1082
      5 C         141.1607  144.0709  164.3642 C.3     1  UNL1        0.0938
      6 N         142.6292  143.8486  164.1541 N.3     1  UNL1       -0.2698
      7 C         143.4026  142.9916  165.1119 C.3     1  UNL1        0.0938
      8 C         142.7076  142.3569  166.2797 C.3     1  UNL1        0.1082
      9 C         139.7757  140.6698  167.4710 C.ar    1  UNL1        0.1519
     10 C         139.0806  140.0351  168.6390 C.ar    1  UNL1        0.0382
     11 C         139.1538  140.6751  169.9936 C.ar    1  UNL1        0.0032
     12 C         139.9222  141.9498  170.1803 C.ar    1  UNL1        0.0015
     13 C         140.6173  142.5844  169.0124 C.ar    1  UNL1        0.0176
     14 C         140.5440  141.9444  167.6578 C.ar    1  UNL1        0.0824
     15 C         138.3752  139.6154  165.5535 C.3     1  UNL1        0.2525
     16 O         139.7024  140.0298  166.1164 O.3     1  UNL1       -0.4702
     17 C         143.6527  143.1381  160.7879 C.3     1  UNL1        0.0488
     18 C         144.5293  142.3278  159.8795 C.3     1  UNL1        0.2054
     19 O         144.1452  140.9220  159.5245 O.3     1  UNL1       -0.4754
     20 C         143.2902  140.1191  160.4597 C.ar    1  UNL1        0.1416
     21 C         143.9008  139.4784  161.6708 C.ar    1  UNL1        0.0371
     22 C         143.0458  138.6756  162.6059 C.ar    1  UNL1        0.0058
     23 C         141.5803  138.5135  162.3300 C.ar    1  UNL1        0.0311
     24 C         140.7254  137.7106  163.2652 C.ar    1  UNL1       -0.0125
     25 C         141.3359  137.0699  164.4763 C.3     1  UNL1        0.0313
     26 C         139.2599  137.5486  162.9893 C.ar    1  UNL1        0.0781
     27 C         138.6494  138.1894  161.7782 C.ar    1  UNL1        0.3456
     28 O         137.1839  138.0273  161.5023 O.2     1  UNL1       -0.2445
     29 O         139.5044  138.9922  160.8431 O.2     1  UNL1       -0.4209
     30 C         140.9698  139.1542  161.1190 C.ar    1  UNL1        0.1514
     31 C         141.8248  139.9570  160.1838 C.ar    1  UNL1        0.0744
@<TRIPOS>BOND
     1    15    16    1
     2    16     9    1
     3     9    10   ar
     4    10    11   ar
     5    11    12   ar
     6    12    13   ar
     7    13    14   ar
     8    14     3    1
     9     3     4    1
    10     4     5    1
    11     5     6    1
    12     6     2    1
    13     2     1    1
    14     1    17    1
    15    17    18    1
    16    18    19    1
    17    19    20    1
    18    20    21   ar
    19    21    22   ar
    20    22    23   ar
    21    23    24   ar
    22    24    25    1
    23    24    26   ar
    24    26    27   ar
    25    27    28    2
    26    27    29   ar
    27    29    30   ar
    28    30    31   ar
    29     6     7    1
    30     7     8    1
    31    14     9   ar
    32     8     3    1
    33    31    20   ar
    34    30    23   ar
@<TRIPOS>MOLECULE
*****
 31 34 0 0 0
SMALL
GASTEIGER

@<TRIPOS>ATOM
      1 C         143.3629  138.8923  162.0790 C.3     1  UNL1        0.0212
      2 C         144.0410  138.8253  163.4153 C.3     1  UNL1        0.0723
      3 N         142.0384  140.5764  167.0449 N.pl3   1  UNL1       -0.3023
      4 C         142.8183  139.3003  167.1609 C.3     1  UNL1        0.1082
      5 C         143.4858  138.7166  165.9511 C.3     1  UNL1        0.0938
      6 N         143.3734  139.4090  164.6252 N.3     1  UNL1       -0.2698
      7 C         142.5936  140.6851  164.5092 C.3     1  UNL1        0.0938
      8 C         141.9261  141.2688  165.7190 C.3     1  UNL1        0.1082
      9 C         142.1068  142.1428  169.1166 C.ar    1  UNL1        0.1519
     10 C         141.4393  142.7264  170.3265 C.ar    1  UNL1        0.0382
     11 C         140.0358  142.3273  170.6745 C.ar    1  UNL1        0.0032
     12 C         139.3000  141.3445  169.8127 C.ar    1  UNL1        0.0015
     13 C         139.9675  140.7609  168.6029 C.ar    1  UNL1        0.0176
     14 C         141.3709  141.1600  168.2548 C.ar    1  UNL1        0.0824
     15 C         144.5170  142.7695  169.8569 C.3     1  UNL1        0.2525
     16 O         143.5102  142.5419  168.7685 O.3     1  UNL1       -0.4702
     17 C         142.2711  137.9204  161.7425 C.3     1  UNL1        0.0488
     18 C         141.2133  137.6000  162.7566 C.3     1  UNL1        0.2054
     19 O         139.8122  138.0992  162.5623 O.3     1  UNL1       -0.4754
     20 C         139.4784  139.5314  162.8585 C.ar    1  UNL1        0.1416
     21 C         138.7902  139.8911  164.1417 C.ar    1  UNL1        0.0371
     22 C         138.4564  141.3232  164.4379 C.ar    1  UNL1        0.0058
     23 C         138.8109  142.3955  163.4507 C.ar    1  UNL1        0.0311
     24 C         138.4771  143.8276  163.7469 C.ar    1  UNL1       -0.0125
     25 C         137.7889  144.1874  165.0302 C.3     1  UNL1        0.0313
     26 C         138.8317  144.9000  162.7598 C.ar    1  UNL1        0.0781
     27 C         139.5200  144.5401  161.4765 C.ar    1  UNL1        0.3456
     28 O         139.8745  145.6125  160.4893 O.2     1  UNL1       -0.2445
     29 O         139.8537  143.1081  161.1803 O.2     1  UNL1       -0.4209
     30 C         139.4992  142.0357  162.1675 C.ar    1  UNL1        0.1514
     31 C         139.8330  140.6037  161.8713 C.ar    1  UNL1        0.0744
@<TRIPOS>BOND
     1    15    16    1
     2    16     9    1
     3     9    10   ar
     4    10    11   ar
     5    11    12   ar
     6    12    13   ar
     7    13    14   ar
     8    14     3    1
     9     3     4    1
    10     4     5    1
    11     5     6    1
    12     6     2    1
    13     2     1    1
    14     1    17    1
    15    17    18    1
    16    18    19    1
    17    19    20    1
    18    20    21   ar
    19    21    22   ar
    20    22    23   ar
    21    23    24   ar
    22    24    25    1
    23    24    26   ar
    24    26    27   ar
    25    27    28    2
    26    27    29   ar
    27    29    30   ar
    28    30    31   ar
    29     6     7    1
    30     7     8    1
    31    14     9   ar
    32     8     3    1
    33    31    20   ar
    34    30    23   ar
