@<TRIPOS>MOLECULE
*****
 31 35 0 0 0
SMALL
GASTEIGER

@<TRIPOS>ATOM
      1 N         139.1109  139.2725  163.8089 N.3     1  UNL1       -0.2704
      2 C         140.2907  140.1678  164.0460 C.3     1  UNL1        0.0722
      3 C         140.6513  140.5794  165.4426 C.3     1  UNL1        0.0195
      4 C         139.8320  140.0957  166.6022 C.3     1  UNL1        0.0300
      5 C         138.6521  139.2003  166.3652 C.3     1  UNL1        0.0195
      6 C         138.2915  138.7888  164.9685 C.3     1  UNL1        0.0722
      7 C         139.1101  139.6934  167.8540 C.3     1  UNL1        0.0874
      8 C         139.8097  140.3309  169.0178 C.2     1  UNL1        0.2298
      9 O         139.4229  140.1959  170.4607 O.2     1  UNL1       -0.2745
     10 N         140.9640  141.1272  168.4851 N.am    1  UNL1       -0.2523
     11 C         140.9778  140.9818  166.9922 C.3     1  UNL1        0.0992
     12 C         141.9341  141.9281  169.3019 C.ar    1  UNL1        0.1035
     13 C         143.4009  141.6515  169.4500 C.ar    1  UNL1        0.0444
     14 C         143.9812  142.6988  170.3536 C.ar    1  UNL1        0.1092
     15 N         142.8730  143.6227  170.7640 N.ar    1  UNL1       -0.2064
     16 S         141.6079  143.1463  170.1139 S.2     1  UNL1        0.0283
     17 C         138.7503  138.8609  162.4123 C.3     1  UNL1        0.1063
     18 C         138.1002  139.8443  161.4848 C.3     1  UNL1        0.1483
     19 O         136.7533  139.5435  160.8969 O.3     1  UNL1       -0.3786
     20 H         136.4794  140.2769  160.3242 H       1  UNL1        0.2108
     21 C         137.5175  142.3295  163.0611 C.3     1  UNL1        0.0306
     22 C         138.5056  142.3711  161.9332 C.ar    1  UNL1       -0.0238
     23 C         138.7969  141.1286  161.1451 C.ar    1  UNL1        0.0015
     24 C         139.7850  141.1702  160.0173 C.ar    1  UNL1       -0.0020
     25 C         140.4817  142.4543  159.6776 C.ar    1  UNL1        0.0060
     26 C         140.1904  143.6969  160.4657 C.ar    1  UNL1        0.0748
     27 C         139.2023  143.6552  161.5935 C.ar    1  UNL1        0.0233
     28 C         139.1196  145.0298  162.1883 C.3     1  UNL1        0.2352
     29 O         140.0566  145.9210  161.4281 O.3     1  UNL1       -0.4404
     30 C         140.7183  145.0972  160.3635 C.2     1  UNL1        0.3413
     31 O         141.7304  145.5875  159.3708 O.2     1  UNL1       -0.2449
@<TRIPOS>BOND
     1    21    22    1
     2    22    23   ar
     3    23    18    1
     4    18    19    1
     5    18    17    1
     6    17     1    1
     7     1     2    1
     8     2     3    1
     9     3     4    1
    10     4     5    1
    11     5     6    1
    12     4     7    1
    13     7     8    1
    14     8     9    2
    15     8    10   am
    16    10    12    1
    17    12    13   ar
    18    13    14   ar
    19    14    15   ar
    20    15    16   ar
    21    10    11    1
    22    23    24   ar
    23    24    25   ar
    24    25    26   ar
    25    26    27   ar
    26    27    28    1
    27    28    29    1
    28    29    30    1
    29    30    31    2
    30    27    22   ar
    31     6     1    1
    32    16    12   ar
    33    30    26    1
    34    11     4    1
    35    19    20    1
@<TRIPOS>MOLECULE
*****
 31 35 0 0 0
SMALL
GASTEIGER

@<TRIPOS>ATOM
      1 N         138.9031  139.2810  163.9551 N.3     1  UNL1       -0.2704
      2 C         140.0797  140.1912  164.1481 C.3     1  UNL1        0.0722
      3 C         140.4961  140.5955  165.5313 C.3     1  UNL1        0.0195
      4 C         139.7360  140.0896  166.7214 C.3     1  UNL1        0.0300
      5 C         138.5595  139.1794  166.5283 C.3     1  UNL1        0.0195
      6 C         138.1430  138.7751  165.1452 C.3     1  UNL1        0.0722
      7 C         139.0762  139.6658  168.0001 C.3     1  UNL1        0.0874
      8 C         139.8178  140.3030  169.1377 C.2     1  UNL1        0.2298
      9 O         139.4975  140.1495  170.5950 O.2     1  UNL1       -0.2745
     10 N         140.9360  141.1206  168.5620 N.am    1  UNL1       -0.2523
     11 C         140.8854  140.9887  167.0687 C.3     1  UNL1        0.0992
     12 C         141.9301  141.9282  169.3426 C.ar    1  UNL1        0.1035
     13 C         143.3984  141.6447  169.4601 C.ar    1  UNL1        0.0444
     14 C         144.0062  142.7024  170.3329 C.ar    1  UNL1        0.1092
     15 N         142.9137  143.6396  170.7549 N.ar    1  UNL1       -0.2064
     16 S         141.6305  143.1610  170.1428 S.2     1  UNL1        0.0283
     17 C         138.4866  138.8767  162.5719 C.3     1  UNL1        0.1063
     18 C         137.8440  139.8786  161.6592 C.3     1  UNL1        0.1483
     19 O         136.6756  139.4770  160.8085 O.3     1  UNL1       -0.3786
     20 H         136.3826  140.2372  160.2820 H       1  UNL1        0.2108
     21 C         140.1057  140.5527  159.8071 C.3     1  UNL1        0.0306
     22 C         139.5005  141.6192  160.6711 C.ar    1  UNL1       -0.0238
     23 C         138.3697  141.2821  161.5971 C.ar    1  UNL1        0.0015
     24 C         137.7645  142.3486  162.4611 C.ar    1  UNL1       -0.0020
     25 C         138.2901  143.7520  162.3991 C.ar    1  UNL1        0.0060
     26 C         139.4210  144.0891  161.4730 C.ar    1  UNL1        0.0748
     27 C         140.0262  143.0227  160.6091 C.ar    1  UNL1        0.0233
     28 C         141.1228  143.6489  159.7995 C.3     1  UNL1        0.2352
     29 O         141.1953  145.1023  160.1632 O.3     1  UNL1       -0.4404
     30 C         140.1436  145.3744  161.1974 C.2     1  UNL1        0.3413
     31 O         139.8635  146.6991  161.8429 O.2     1  UNL1       -0.2449
@<TRIPOS>BOND
     1    21    22    1
     2    22    23   ar
     3    23    18    1
     4    18    19    1
     5    18    17    1
     6    17     1    1
     7     1     2    1
     8     2     3    1
     9     3     4    1
    10     4     5    1
    11     5     6    1
    12     4     7    1
    13     7     8    1
    14     8     9    2
    15     8    10   am
    16    10    12    1
    17    12    13   ar
    18    13    14   ar
    19    14    15   ar
    20    15    16   ar
    21    10    11    1
    22    23    24   ar
    23    24    25   ar
    24    25    26   ar
    25    26    27   ar
    26    27    28    1
    27    28    29    1
    28    29    30    1
    29    30    31    2
    30    27    22   ar
    31     6     1    1
    32    16    12   ar
    33    30    26    1
    34    11     4    1
    35    19    20    1
@<TRIPOS>MOLECULE
*****
 31 35 0 0 0
SMALL
GASTEIGER

@<TRIPOS>ATOM
      1 N         138.5025  140.9937  164.1493 N.3     1  UNL1       -0.2704
      2 C         139.1606  140.7236  162.8287 C.3     1  UNL1        0.0722
      3 C         139.5494  141.8655  161.9372 C.3     1  UNL1        0.0195
      4 C         139.2802  143.2774  162.3662 C.3     1  UNL1        0.0300
      5 C         138.6221  143.5474  163.6868 C.3     1  UNL1        0.0195
      6 C         138.2333  142.4056  164.5783 C.3     1  UNL1        0.0722
      7 C         139.0756  144.7342  162.6593 C.3     1  UNL1        0.0874
      8 C         139.6109  145.5201  161.4992 C.2     1  UNL1        0.2298
      9 O         139.6108  147.0147  161.3716 O.2     1  UNL1       -0.2745
     10 N         140.1463  144.5490  160.4890 N.am    1  UNL1       -0.2523
     11 C         139.9419  143.1629  161.0248 C.3     1  UNL1        0.0992
     12 C         140.7756  144.9020  159.1740 C.ar    1  UNL1        0.1035
     13 C         140.2536  145.9042  158.1876 C.ar    1  UNL1        0.0444
     14 C         141.1927  145.9364  157.0185 C.ar    1  UNL1        0.1092
     15 N         142.2952  144.9540  157.2822 N.ar    1  UNL1       -0.2064
     16 S         142.0373  144.3147  158.6145 S.2     1  UNL1        0.0283
     17 C         138.1136  139.8518  165.0410 C.3     1  UNL1        0.1063
     18 C         139.1375  139.2141  165.9326 C.3     1  UNL1        0.1483
     19 O         139.7432  137.8948  165.5551 O.3     1  UNL1       -0.3786
     20 H         140.3814  137.6258  166.2344 H       1  UNL1        0.2108
     21 C         141.5912  140.9397  165.9703 C.3     1  UNL1        0.0306
     22 C         140.7825  140.7585  167.2206 C.ar    1  UNL1       -0.0238
     23 C         139.5556  139.8957  167.2017 C.ar    1  UNL1        0.0015
     24 C         138.7469  139.7145  168.4519 C.ar    1  UNL1       -0.0020
     25 C         139.1649  140.3960  169.7210 C.ar    1  UNL1        0.0060
     26 C         140.3918  141.2588  169.7399 C.ar    1  UNL1        0.0748
     27 C         141.2005  141.4400  168.4897 C.ar    1  UNL1        0.0233
     28 C         142.3537  142.3441  168.8106 C.3     1  UNL1        0.2352
     29 O         142.2577  142.7216  170.2591 O.3     1  UNL1       -0.4404
     30 C         141.0451  142.0508  170.8334 C.2     1  UNL1        0.3413
     31 O         140.5694  142.1540  172.2523 O.2     1  UNL1       -0.2449
@<TRIPOS>BOND
     1    21    22    1
     2    22    23   ar
     3    23    18    1
     4    18    19    1
     5    18    17    1
     6    17     1    1
     7     1     2    1
     8     2     3    1
     9     3     4    1
    10     4     5    1
    11     5     6    1
    12     4     7    1
    13     7     8    1
    14     8     9    2
    15     8    10   am
    16    10    12    1
    17    12    13   ar
    18    13    14   ar
    19    14    15   ar
    20    15    16   ar
    21    10    11    1
    22    23    24   ar
    23    24    25   ar
    24    25    26   ar
    25    26    27   ar
    26    27    28    1
    27    28    29    1
    28    29    30    1
    29    30    31    2
    30    27    22   ar
    31     6     1    1
    32    16    12   ar
    33    30    26    1
    34    11     4    1
    35    19    20    1
@<TRIPOS>MOLECULE
*****
 31 35 0 0 0
SMALL
GASTEIGER

@<TRIPOS>ATOM
      1 N         138.2642  141.0615  163.7856 N.3     1  UNL1       -0.2704
      2 C         139.2560  142.1252  164.1529 C.3     1  UNL1        0.0722
      3 C         139.9515  142.0757  165.4810 C.3     1  UNL1        0.0195
      4 C         139.6551  140.9626  166.4418 C.3     1  UNL1        0.0300
      5 C         138.6633  139.8989  166.0745 C.3     1  UNL1        0.0195
      6 C         137.9679  139.9484  164.7464 C.3     1  UNL1        0.0722
      7 C         139.4623  139.9167  167.4996 C.3     1  UNL1        0.0874
      8 C         140.3536  140.2580  168.6569 C.2     1  UNL1        0.2298
      9 O         140.4791  139.4793  169.9327 O.2     1  UNL1       -0.2745
     10 N         141.0973  141.5149  168.3142 N.am    1  UNL1       -0.2523
     11 C         140.6657  141.9503  166.9452 C.3     1  UNL1        0.0992
     12 C         142.0970  142.2135  169.1872 C.ar    1  UNL1        0.1035
     13 C         143.5842  142.0203  169.1536 C.ar    1  UNL1        0.0444
     14 C         144.1915  142.9155  170.1928 C.ar    1  UNL1        0.1092
     15 N         143.0798  143.6620  170.8687 N.ar    1  UNL1       -0.2064
     16 S         141.7853  143.2281  170.2471 S.2     1  UNL1        0.0283
     17 C         137.5687  141.1110  162.4575 C.3     1  UNL1        0.1063
     18 C         137.8723  140.0782  161.4129 C.3     1  UNL1        0.1483
     19 O         136.7895  139.1596  160.9294 O.3     1  UNL1       -0.3786
     20 H         137.1510  138.5579  160.2600 H       1  UNL1        0.2108
     21 C         139.7061  137.9079  162.3760 C.3     1  UNL1        0.0306
     22 C         140.1756  138.8788  161.3334 C.ar    1  UNL1       -0.0238
     23 C         139.2588  139.9639  160.8519 C.ar    1  UNL1        0.0015
     24 C         139.7283  140.9347  159.8093 C.ar    1  UNL1       -0.0020
     25 C         141.1147  140.8205  159.2483 C.ar    1  UNL1        0.0060
     26 C         142.0315  139.7354  159.7298 C.ar    1  UNL1        0.0748
     27 C         141.5620  138.7645  160.7724 C.ar    1  UNL1        0.0233
     28 C         142.6816  137.8060  161.0509 C.3     1  UNL1        0.2352
     29 O         143.8432  138.1844  160.1804 O.3     1  UNL1       -0.4404
     30 C         143.4414  139.3768  159.3640 C.2     1  UNL1        0.3413
     31 O         144.2989  140.0862  158.3582 O.2     1  UNL1       -0.2449
@<TRIPOS>BOND
     1    21    22    1
     2    22    23   ar
     3    23    18    1
     4    18    19    1
     5    18    17    1
     6    17     1    1
     7     1     2    1
     8     2     3    1
     9     3     4    1
    10     4     5    1
    11     5     6    1
    12     4     7    1
    13     7     8    1
    14     8     9    2
    15     8    10   am
    16    10    12    1
    17    12    13   ar
    18    13    14   ar
    19    14    15   ar
    20    15    16   ar
    21    10    11    1
    22    23    24   ar
    23    24    25   ar
    24    25    26   ar
    25    26    27   ar
    26    27    28    1
    27    28    29    1
    28    29    30    1
    29    30    31    2
    30    27    22   ar
    31     6     1    1
    32    16    12   ar
    33    30    26    1
    34    11     4    1
    35    19    20    1
@<TRIPOS>MOLECULE
*****
 31 35 0 0 0
SMALL
GASTEIGER

@<TRIPOS>ATOM
      1 N         138.8812  138.4474  162.9372 N.3     1  UNL1       -0.2704
      2 C         138.6434  139.3036  164.1456 C.3     1  UNL1        0.0722
      3 C         139.6992  139.4155  165.2051 C.3     1  UNL1        0.0195
      4 C         140.9930  138.6712  165.0561 C.3     1  UNL1        0.0300
      5 C         141.2309  137.8151  163.8477 C.3     1  UNL1        0.0195
      6 C         140.1750  137.7032  162.7882 C.3     1  UNL1        0.0722
      7 C         142.3291  137.9894  165.0448 C.3     1  UNL1        0.0874
      8 C         143.0601  138.3814  166.2947 C.2     1  UNL1        0.2298
      9 O         144.4341  137.9288  166.6912 O.2     1  UNL1       -0.2745
     10 N         142.1758  139.3054  167.0785 N.am    1  UNL1       -0.2523
     11 C         140.8983  139.4845  166.3130 C.3     1  UNL1        0.0992
     12 C         142.5102  139.9390  168.3962 C.ar    1  UNL1        0.1035
     13 C         142.9451  141.3591  168.6066 C.ar    1  UNL1        0.0444
     14 C         143.1721  141.5616  170.0754 C.ar    1  UNL1        0.1092
     15 N         142.8776  140.2666  170.7729 N.ar    1  UNL1       -0.2064
     16 S         142.4685  139.2639  169.7350 S.2     1  UNL1        0.0283
     17 C         137.8253  138.3355  161.8776 C.3     1  UNL1        0.1063
     18 C         137.6205  139.4560  160.9016 C.3     1  UNL1        0.1483
     19 O         136.3170  139.5851  160.1707 O.3     1  UNL1       -0.3786
     20 H         136.3507  140.3562  159.5833 H       1  UNL1        0.2108
     21 C         137.6311  142.0755  162.3639 C.3     1  UNL1        0.0306
     22 C         138.7245  141.7571  161.3876 C.ar    1  UNL1       -0.0238
     23 C         138.7192  140.4474  160.6565 C.ar    1  UNL1        0.0015
     24 C         139.8126  140.1290  159.6802 C.ar    1  UNL1       -0.0020
     25 C         140.9113  141.1203  159.4350 C.ar    1  UNL1        0.0060
     26 C         140.9165  142.4300  160.1662 C.ar    1  UNL1        0.0748
     27 C         139.8231  142.7484  161.1424 C.ar    1  UNL1        0.0233
     28 C         140.0915  144.1103  161.7109 C.3     1  UNL1        0.2352
     29 O         141.3507  144.6337  161.0861 O.3     1  UNL1       -0.4404
     30 C         141.8606  143.5952  160.1313 C.2     1  UNL1        0.3413
     31 O         143.0974  143.7029  159.2895 O.2     1  UNL1       -0.2449
@<TRIPOS>BOND
     1    21    22    1
     2    22    23   ar
     3    23    18    1
     4    18    19    1
     5    18    17    1
     6    17     1    1
     7     1     2    1
     8     2     3    1
     9     3     4    1
    10     4     5    1
    11     5     6    1
    12     4     7    1
    13     7     8    1
    14     8     9    2
    15     8    10   am
    16    10    12    1
    17    12    13   ar
    18    13    14   ar
    19    14    15   ar
    20    15    16   ar
    21    10    11    1
    22    23    24   ar
    23    24    25   ar
    24    25    26   ar
    25    26    27   ar
    26    27    28    1
    27    28    29    1
    28    29    30    1
    29    30    31    2
    30    27    22   ar
    31     6     1    1
    32    16    12   ar
    33    30    26    1
    34    11     4    1
    35    19    20    1
@<TRIPOS>MOLECULE
*****
 31 35 0 0 0
SMALL
GASTEIGER

@<TRIPOS>ATOM
      1 N         139.6570  138.4447  162.4507 N.3     1  UNL1       -0.2704
      2 C         138.7944  139.3476  163.2817 C.3     1  UNL1        0.0722
      3 C         139.2506  139.7742  164.6454 C.3     1  UNL1        0.0195
      4 C         140.5695  139.2979  165.1781 C.3     1  UNL1        0.0300
      5 C         141.4321  138.3950  164.3471 C.3     1  UNL1        0.0195
      6 C         140.9758  137.9684  162.9834 C.3     1  UNL1        0.0722
      7 C         141.8566  138.9045  165.8404 C.3     1  UNL1        0.0874
      8 C         141.9013  139.5563  167.1907 C.2     1  UNL1        0.2298
      9 O         143.0107  139.4334  168.1927 O.2     1  UNL1       -0.2745
     10 N         140.6418  140.3527  167.3629 N.am    1  UNL1       -0.2523
     11 C         139.8187  140.1930  166.1191 C.3     1  UNL1        0.0992
     12 C         140.2706  141.1658  168.5674 C.ar    1  UNL1        0.1035
     13 C         140.6509  142.5951  168.8175 C.ar    1  UNL1        0.0444
     14 C         140.0693  143.0052  170.1380 C.ar    1  UNL1        0.1092
     15 N         139.3295  141.8294  170.7039 N.ar    1  UNL1       -0.2064
     16 S         139.4540  140.6926  169.7332 S.2     1  UNL1        0.0283
     17 C         139.2007  138.0180  161.0869 C.3     1  UNL1        0.1063
     18 C         139.5452  138.8492  159.8867 C.3     1  UNL1        0.1483
     19 O         139.7100  138.1979  158.5456 O.3     1  UNL1       -0.3786
     20 H         139.9301  138.8719  157.8836 H       1  UNL1        0.2108
     21 C         142.2995  140.0079  160.1535 C.3     1  UNL1        0.0306
     22 C         141.1019  140.9111  160.1610 C.ar    1  UNL1       -0.0238
     23 C         139.7248  140.3318  160.0276 C.ar    1  UNL1        0.0015
     24 C         138.5272  141.2350  160.0350 C.ar    1  UNL1       -0.0020
     25 C         138.7068  142.7175  160.1759 C.ar    1  UNL1        0.0060
     26 C         140.0839  143.2968  160.3093 C.ar    1  UNL1        0.0748
     27 C         141.2815  142.3936  160.3019 C.ar    1  UNL1        0.0233
     28 C         142.5063  143.2467  160.4502 C.3     1  UNL1        0.2352
     29 O         142.0658  144.6771  160.5493 O.3     1  UNL1       -0.4404
     30 C         140.5687  144.7080  160.4623 C.2     1  UNL1        0.3413
     31 O         139.7074  145.9349  160.5183 O.2     1  UNL1       -0.2449
@<TRIPOS>BOND
     1    21    22    1
     2    22    23   ar
     3    23    18    1
     4    18    19    1
     5    18    17    1
     6    17     1    1
     7     1     2    1
     8     2     3    1
     9     3     4    1
    10     4     5    1
    11     5     6    1
    12     4     7    1
    13     7     8    1
    14     8     9    2
    15     8    10   am
    16    10    12    1
    17    12    13   ar
    18    13    14   ar
    19    14    15   ar
    20    15    16   ar
    21    10    11    1
    22    23    24   ar
    23    24    25   ar
    24    25    26   ar
    25    26    27   ar
    26    27    28    1
    27    28    29    1
    28    29    30    1
    29    30    31    2
    30    27    22   ar
    31     6     1    1
    32    16    12   ar
    33    30    26    1
    34    11     4    1
    35    19    20    1
@<TRIPOS>MOLECULE
*****
 31 35 0 0 0
SMALL
GASTEIGER

@<TRIPOS>ATOM
      1 N         138.4704  139.2648  164.7174 N.3     1  UNL1       -0.2704
      2 C         137.9730  140.5068  164.0393 C.3     1  UNL1        0.0722
      3 C         138.0386  140.6231  162.5453 C.3     1  UNL1        0.0195
      4 C         138.6017  139.4973  161.7294 C.3     1  UNL1        0.0300
      5 C         139.0991  138.2553  162.4075 C.3     1  UNL1        0.0195
      6 C         139.0334  138.1390  163.9015 C.3     1  UNL1        0.0722
      7 C         139.1356  138.4597  160.7868 C.3     1  UNL1        0.0874
      8 C         139.0088  138.9928  159.3904 C.2     1  UNL1        0.2298
      9 O         139.4217  138.2833  158.1350 O.2     1  UNL1       -0.2745
     10 N         138.3965  140.3599  159.4700 N.am    1  UNL1       -0.2523
     11 C         138.1449  140.6717  160.9155 C.3     1  UNL1        0.0992
     12 C         138.0898  141.2575  158.3081 C.ar    1  UNL1        0.1035
     13 C         137.1572  140.9458  157.1753 C.ar    1  UNL1        0.0444
     14 C         137.1528  142.1200  156.2420 C.ar    1  UNL1        0.1092
     15 N         138.0826  143.1576  156.7979 N.ar    1  UNL1       -0.2064
     16 S         138.6617  142.6244  158.0749 S.2     1  UNL1        0.0283
     17 C         138.4048  139.1484  166.2115 C.3     1  UNL1        0.1063
     18 C         139.5372  139.6564  167.0538 C.3     1  UNL1        0.1483
     19 O         139.3849  139.7403  168.5436 O.3     1  UNL1       -0.3786
     20 H         140.2030  140.0865  168.9333 H       1  UNL1        0.2108
     21 C         139.9852  142.5396  166.3560 C.3     1  UNL1        0.0306
     22 C         141.0461  141.5221  166.0573 C.ar    1  UNL1       -0.0238
     23 C         140.8221  140.0805  166.4061 C.ar    1  UNL1        0.0015
     24 C         141.8830  139.0630  166.1074 C.ar    1  UNL1       -0.0020
     25 C         143.1678  139.4870  165.4598 C.ar    1  UNL1        0.0060
     26 C         143.3918  140.9286  165.1110 C.ar    1  UNL1        0.0748
     27 C         142.3309  141.9461  165.4097 C.ar    1  UNL1        0.0233
     28 C         142.8316  143.2849  164.9549 C.3     1  UNL1        0.2352
     29 O         144.2018  143.0949  164.3751 O.3     1  UNL1       -0.4404
     30 C         144.5480  141.6386  164.4716 C.2     1  UNL1        0.3413
     31 O         145.8262  141.0037  164.0097 O.2     1  UNL1       -0.2449
@<TRIPOS>BOND
     1    21    22    1
     2    22    23   ar
     3    23    18    1
     4    18    19    1
     5    18    17    1
     6    17     1    1
     7     1     2    1
     8     2     3    1
     9     3     4    1
    10     4     5    1
    11     5     6    1
    12     4     7    1
    13     7     8    1
    14     8     9    2
    15     8    10   am
    16    10    12    1
    17    12    13   ar
    18    13    14   ar
    19    14    15   ar
    20    15    16   ar
    21    10    11    1
    22    23    24   ar
    23    24    25   ar
    24    25    26   ar
    25    26    27   ar
    26    27    28    1
    27    28    29    1
    28    29    30    1
    29    30    31    2
    30    27    22   ar
    31     6     1    1
    32    16    12   ar
    33    30    26    1
    34    11     4    1
    35    19    20    1
@<TRIPOS>MOLECULE
*****
 31 35 0 0 0
SMALL
GASTEIGER

@<TRIPOS>ATOM
      1 N         143.1751  138.5393  164.6284 N.3     1  UNL1       -0.2704
      2 C         141.9893  137.9396  163.9325 C.3     1  UNL1        0.0722
      3 C         141.8733  138.0257  162.4395 C.3     1  UNL1        0.0195
      4 C         142.9431  138.7114  161.6424 C.3     1  UNL1        0.0300
      5 C         144.1289  139.3110  162.3383 C.3     1  UNL1        0.0195
      6 C         144.2449  139.2249  163.8313 C.3     1  UNL1        0.0722
      7 C         143.9285  139.3623  160.7175 C.3     1  UNL1        0.0874
      8 C         143.4158  139.2148  159.3155 C.2     1  UNL1        0.2298
      9 O         144.0874  139.7205  158.0733 O.2     1  UNL1       -0.2745
     10 N         142.1134  138.4727  159.3740 N.am    1  UNL1       -0.2523
     11 C         141.8213  138.1616  160.8120 C.3     1  UNL1        0.0992
     12 C         141.2542  138.1061  158.2005 C.ar    1  UNL1        0.1035
     13 C         141.6854  137.3048  157.0081 C.ar    1  UNL1        0.0444
     14 C         140.5106  137.1799  156.0840 C.ar    1  UNL1        0.1092
     15 N         139.3531  137.9041  156.7052 N.ar    1  UNL1       -0.2064
     16 S         139.8127  138.4765  158.0133 S.2     1  UNL1        0.0283
     17 C         143.2911  138.4533  166.1215 C.3     1  UNL1        0.1063
     18 C         142.6538  139.5013  166.9848 C.3     1  UNL1        0.1483
     19 O         143.0136  139.5964  168.4380 O.3     1  UNL1       -0.3786
     20 H         142.5158  140.3212  168.8475 H       1  UNL1        0.2108
     21 C         143.5725  142.1238  165.8540 C.3     1  UNL1        0.0306
     22 C         142.1161  141.7655  165.8297 C.ar    1  UNL1       -0.0238
     23 C         141.6568  140.4543  166.3951 C.ar    1  UNL1        0.0015
     24 C         140.2004  140.0960  166.3709 C.ar    1  UNL1       -0.0020
     25 C         139.2033  141.0490  165.7812 C.ar    1  UNL1        0.0060
     26 C         139.6627  142.3602  165.2158 C.ar    1  UNL1        0.0748
     27 C         141.1190  142.7184  165.2401 C.ar    1  UNL1        0.0233
     28 C         141.2738  144.0724  164.6133 C.3     1  UNL1        0.2352
     29 O         139.9131  144.5510  164.2017 O.3     1  UNL1       -0.4404
     30 C         138.9174  143.4927  164.5740 C.2     1  UNL1        0.3413
     31 O         137.4363  143.5559  164.3449 O.2     1  UNL1       -0.2449
@<TRIPOS>BOND
     1    21    22    1
     2    22    23   ar
     3    23    18    1
     4    18    19    1
     5    18    17    1
     6    17     1    1
     7     1     2    1
     8     2     3    1
     9     3     4    1
    10     4     5    1
    11     5     6    1
    12     4     7    1
    13     7     8    1
    14     8     9    2
    15     8    10   am
    16    10    12    1
    17    12    13   ar
    18    13    14   ar
    19    14    15   ar
    20    15    16   ar
    21    10    11    1
    22    23    24   ar
    23    24    25   ar
    24    25    26   ar
    25    26    27   ar
    26    27    28    1
    27    28    29    1
    28    29    30    1
    29    30    31    2
    30    27    22   ar
    31     6     1    1
    32    16    12   ar
    33    30    26    1
    34    11     4    1
    35    19    20    1
@<TRIPOS>MOLECULE
*****
 31 35 0 0 0
SMALL
GASTEIGER

@<TRIPOS>ATOM
      1 N         142.2235  138.1884  162.9126 N.3     1  UNL1       -0.2704
      2 C         142.8238  139.1240  163.9196 C.3     1  UNL1        0.0722
      3 C         142.0556  139.4894  165.1550 C.3     1  UNL1        0.0195
      4 C         140.6871  138.9193  165.3834 C.3     1  UNL1        0.0300
      5 C         140.0868  137.9837  164.3763 C.3     1  UNL1        0.0195
      6 C         140.8550  137.6182  163.1409 C.3     1  UNL1        0.0722
      7 C         139.3160  138.4307  165.7458 C.3     1  UNL1        0.0874
      8 C         138.9366  139.0469  167.0598 C.2     1  UNL1        0.2298
      9 O         137.6471  138.8316  167.7951 O.2     1  UNL1       -0.2745
     10 N         140.0734  139.9163  167.5094 N.am    1  UNL1       -0.2523
     11 C         141.1552  139.8374  166.4734 C.3     1  UNL1        0.0992
     12 C         140.1200  140.7230  168.7732 C.ar    1  UNL1        0.1035
     13 C         140.2100  142.2176  168.8623 C.ar    1  UNL1        0.0444
     14 C         140.2305  142.5950  170.3139 C.ar    1  UNL1        0.1092
     15 N         140.1532  141.3336  171.1220 N.ar    1  UNL1       -0.2064
     16 S         140.0849  140.1766  170.1697 S.2     1  UNL1        0.0283
     17 C         142.9917  137.8230  161.6770 C.3     1  UNL1        0.1063
     18 C         142.8072  138.6159  160.4172 C.3     1  UNL1        0.1483
     19 O         143.3867  138.1183  159.1262 O.3     1  UNL1       -0.3786
     20 H         143.1777  138.7444  158.4154 H       1  UNL1        0.2108
     21 C         139.8857  138.6465  159.7363 C.3     1  UNL1        0.0306
     22 C         140.5826  139.9217  160.1079 C.ar    1  UNL1       -0.0238
     23 C         142.0433  139.9065  160.4484 C.ar    1  UNL1        0.0015
     24 C         142.7402  141.1817  160.8199 C.ar    1  UNL1       -0.0020
     25 C         141.9763  142.4722  160.8511 C.ar    1  UNL1        0.0060
     26 C         140.5156  142.4875  160.5106 C.ar    1  UNL1        0.0748
     27 C         139.8187  141.2123  160.1391 C.ar    1  UNL1        0.0233
     28 C         138.3818  141.5353  159.8544 C.3     1  UNL1        0.2352
     29 O         138.1906  143.0101  160.0501 O.3     1  UNL1       -0.4404
     30 C         139.5094  143.5986  160.4556 C.2     1  UNL1        0.3413
     31 O         139.7753  145.0444  160.7538 O.2     1  UNL1       -0.2449
@<TRIPOS>BOND
     1    21    22    1
     2    22    23   ar
     3    23    18    1
     4    18    19    1
     5    18    17    1
     6    17     1    1
     7     1     2    1
     8     2     3    1
     9     3     4    1
    10     4     5    1
    11     5     6    1
    12     4     7    1
    13     7     8    1
    14     8     9    2
    15     8    10   am
    16    10    12    1
    17    12    13   ar
    18    13    14   ar
    19    14    15   ar
    20    15    16   ar
    21    10    11    1
    22    23    24   ar
    23    24    25   ar
    24    25    26   ar
    25    26    27   ar
    26    27    28    1
    27    28    29    1
    28    29    30    1
    29    30    31    2
    30    27    22   ar
    31     6     1    1
    32    16    12   ar
    33    30    26    1
    34    11     4    1
    35    19    20    1
