@<TRIPOS>MOLECULE
*****
 35 39 0 0 0
SMALL
GASTEIGER

@<TRIPOS>ATOM
      1 N         142.1585  139.7162  158.6706 N.3     1  UNL1       -0.1555
      2 C         142.2037  139.9042  160.1581 C.3     1  UNL1        0.0958
      3 C         141.0476  139.4619  161.0054 C.3     1  UNL1        0.0206
      4 C         139.8465  138.8315  160.3651 C.3     1  UNL1        0.0189
      5 C         139.8013  138.6435  158.8777 C.3     1  UNL1        0.0206
      6 C         140.9574  139.0858  158.0304 C.3     1  UNL1        0.0958
      7 S         143.3146  140.1585  157.8233 S.O2    1  UNL1        0.0633
      8 O         143.3725  138.7987  157.1926 O.2     1  UNL1       -0.1528
      9 O         143.2566  141.5182  158.4540 O.2     1  UNL1       -0.1528
     10 C         146.7827  141.4854  155.2814 C.ar    1  UNL1        0.2901
     11 C         146.4465  142.2303  156.5392 C.ar    1  UNL1        0.0766
     12 C         145.2904  141.7880  157.3865 C.ar    1  UNL1        0.0262
     13 C         144.4707  140.6008  156.9759 C.ar    1  UNL1        0.1226
     14 C         144.8069  139.8559  155.7182 C.ar    1  UNL1        0.0262
     15 C         145.9630  140.2982  154.8709 C.ar    1  UNL1        0.0766
     16 O         147.6908  142.5376  153.0863 O.2     1  UNL1        0.0415
     17 N         147.9388  141.9277  154.4341 N.pl3   1  UNL1        0.0809
     18 O         149.3429  141.7602  154.9347 O.co2   1  UNL1       -0.5760
     19 C         138.6904  138.3891  161.2124 C.3     1  UNL1        0.0721
     20 N         138.6941  138.6616  162.6875 N.3     1  UNL1       -0.2727
     21 C         139.2291  137.6328  163.6389 C.3     1  UNL1        0.0725
     22 C         139.2328  137.9052  165.1139 C.3     1  UNL1        0.0234
     23 C         138.7014  139.2066  165.6376 C.3     1  UNL1        0.0464
     24 C         138.1664  140.2354  164.6862 C.3     1  UNL1        0.0234
     25 C         138.1627  139.9629  163.2111 C.3     1  UNL1        0.0725
     26 C         138.7051  139.4791  167.1126 C.ar    1  UNL1        0.1003
     27 N         137.7703  138.8812  168.1220 N.ar    1  UNL1       -0.0814
     28 O         138.1317  139.4299  169.4704 O.2     1  UNL1       -0.3536
     29 C         139.2898  140.3669  169.2945 C.ar    1  UNL1        0.1787
     30 C         140.0674  141.1963  170.2729 C.ar    1  UNL1        0.0698
     31 C         141.1993  142.0562  169.7940 C.ar    1  UNL1        0.1433
     32 F         141.9770  142.8857  170.7725 F       1  UNL1       -0.2041
     33 C         141.5537  142.0866  168.3368 C.ar    1  UNL1        0.0299
     34 C         140.7761  141.2571  167.3584 C.ar    1  UNL1        0.0067
     35 C         139.6441  140.3973  167.8372 C.ar    1  UNL1        0.0540
@<TRIPOS>UNITY_ATOM_ATTR
17 1
charge 1
18 1
charge -1
@<TRIPOS>BOND
     1    16    17    2
     2    17    18    1
     3    17    10    1
     4    10    11   ar
     5    11    12   ar
     6    12    13   ar
     7    13     7    1
     8     7     8    2
     9     7     9    2
    10     7     1    1
    11     1     2    1
    12     2     3    1
    13     3     4    1
    14     4    19    1
    15    19    20    1
    16    20    21    1
    17    21    22    1
    18    22    23    1
    19    23    26    1
    20    26    27   ar
    21    27    28   ar
    22    28    29   ar
    23    29    30   ar
    24    30    31   ar
    25    31    32    1
    26    31    33   ar
    27    33    34   ar
    28    34    35   ar
    29    23    24    1
    30    24    25    1
    31     4     5    1
    32     5     6    1
    33    13    14   ar
    34    14    15   ar
    35    15    10   ar
    36     6     1    1
    37    25    20    1
    38    35    26   ar
    39    35    29   ar
@<TRIPOS>MOLECULE
*****
 35 39 0 0 0
SMALL
GASTEIGER

@<TRIPOS>ATOM
      1 N         142.8038  141.5865  163.5863 N.3     1  UNL1       -0.1555
      2 C         141.9291  142.1086  162.4852 C.3     1  UNL1        0.0958
      3 C         142.3177  141.8932  161.0525 C.3     1  UNL1        0.0206
      4 C         143.5811  141.1557  160.7209 C.3     1  UNL1        0.0189
      5 C         144.4559  140.6337  161.8219 C.3     1  UNL1        0.0206
      6 C         144.0672  140.8490  163.2546 C.3     1  UNL1        0.0958
      7 S         142.4152  141.8019  165.0189 S.O2    1  UNL1        0.0633
      8 O         143.7998  142.2939  165.3205 O.2     1  UNL1       -0.1528
      9 O         141.0307  141.3098  164.7173 O.2     1  UNL1       -0.1528
     10 C         141.2494  142.4480  169.3170 C.ar    1  UNL1        0.2901
     11 C         140.1890  142.3024  168.2660 C.ar    1  UNL1        0.0766
     12 C         140.5776  142.0870  166.8334 C.ar    1  UNL1        0.0262
     13 C         142.0266  142.0173  166.4517 C.ar    1  UNL1        0.1226
     14 C         143.0869  142.1629  167.5026 C.ar    1  UNL1        0.0262
     15 C         142.6983  142.3783  168.9353 C.ar    1  UNL1        0.0766
     16 O         141.8429  142.3718  171.8452 O.2     1  UNL1        0.0415
     17 N         140.8607  142.6634  170.7496 N.pl3   1  UNL1        0.0809
     18 O         139.4898  143.1705  171.0868 O.co2   1  UNL1       -0.5760
     19 C         143.9698  140.9404  159.2883 C.3     1  UNL1        0.0721
     20 N         143.5347  139.6963  158.5720 N.3     1  UNL1       -0.2727
     21 C         143.6945  139.5928  157.0841 C.3     1  UNL1        0.0725
     22 C         143.2594  138.3487  156.3678 C.3     1  UNL1        0.0234
     23 C         142.6644  137.2082  157.1395 C.3     1  UNL1        0.0464
     24 C         142.5047  137.3118  158.6273 C.3     1  UNL1        0.0234
     25 C         142.9398  138.5558  159.3436 C.3     1  UNL1        0.0725
     26 C         142.2293  135.9641  156.4232 C.ar    1  UNL1        0.1003
     27 N         141.1545  135.8773  155.3805 N.ar    1  UNL1       -0.0814
     28 O         141.0536  134.4480  154.9368 O.2     1  UNL1       -0.3536
     29 C         142.0661  133.6515  155.7052 C.ar    1  UNL1        0.1787
     30 C         142.4202  132.1940  155.6871 C.ar    1  UNL1        0.0698
     31 C         143.5010  131.6736  156.5877 C.ar    1  UNL1        0.1433
     32 F         143.8551  130.2161  156.5696 F       1  UNL1       -0.2041
     33 C         144.2276  132.6106  157.5063 C.ar    1  UNL1        0.0299
     34 C         143.8735  134.0681  157.5244 C.ar    1  UNL1        0.0067
     35 C         142.7927  134.5885  156.6239 C.ar    1  UNL1        0.0540
@<TRIPOS>UNITY_ATOM_ATTR
17 1
charge 1
18 1
charge -1
@<TRIPOS>BOND
     1    16    17    2
     2    17    18    1
     3    17    10    1
     4    10    11   ar
     5    11    12   ar
     6    12    13   ar
     7    13     7    1
     8     7     8    2
     9     7     9    2
    10     7     1    1
    11     1     2    1
    12     2     3    1
    13     3     4    1
    14     4    19    1
    15    19    20    1
    16    20    21    1
    17    21    22    1
    18    22    23    1
    19    23    26    1
    20    26    27   ar
    21    27    28   ar
    22    28    29   ar
    23    29    30   ar
    24    30    31   ar
    25    31    32    1
    26    31    33   ar
    27    33    34   ar
    28    34    35   ar
    29    23    24    1
    30    24    25    1
    31     4     5    1
    32     5     6    1
    33    13    14   ar
    34    14    15   ar
    35    15    10   ar
    36     6     1    1
    37    25    20    1
    38    35    26   ar
    39    35    29   ar
@<TRIPOS>MOLECULE
*****
 35 39 0 0 0
SMALL
GASTEIGER

@<TRIPOS>ATOM
      1 N         142.4897  140.3954  163.7194 N.3     1  UNL1       -0.1555
      2 C         141.7199  141.1913  162.7075 C.3     1  UNL1        0.0958
      3 C         142.1813  141.2375  161.2810 C.3     1  UNL1        0.0206
      4 C         143.4126  140.4877  160.8664 C.3     1  UNL1        0.0189
      5 C         144.1824  139.6918  161.8783 C.3     1  UNL1        0.0206
      6 C         143.7210  139.6456  163.3048 C.3     1  UNL1        0.0958
      7 S         142.0283  140.3493  165.1459 S.O2    1  UNL1        0.0633
      8 O         143.3986  139.9153  165.5751 O.2     1  UNL1       -0.1528
      9 O         140.6581  140.7832  164.7168 O.2     1  UNL1       -0.1528
     10 C         140.6442  140.2108  169.4256 C.ar    1  UNL1        0.2901
     11 C         142.1086  140.1400  169.1082 C.ar    1  UNL1        0.0766
     12 C         142.5699  140.1862  167.6817 C.ar    1  UNL1        0.0262
     13 C         141.5669  140.3031  166.5725 C.ar    1  UNL1        0.1226
     14 C         140.1026  140.3739  166.8898 C.ar    1  UNL1        0.0262
     15 C         139.6412  140.3277  168.3164 C.ar    1  UNL1        0.0766
     16 O         139.1234  139.1871  171.2665 O.2     1  UNL1        0.0415
     17 N         140.1829  140.1646  170.8521 N.pl3   1  UNL1        0.0809
     18 O         140.7812  141.0961  171.8644 O.co2   1  UNL1       -0.5760
     19 C         143.8740  140.5338  159.4399 C.3     1  UNL1        0.0721
     20 N         143.4193  139.4836  158.4702 N.3     1  UNL1       -0.2727
     21 C         143.7959  139.5865  157.0219 C.3     1  UNL1        0.0725
     22 C         143.3412  138.5363  156.0522 C.3     1  UNL1        0.0234
     23 C         142.5098  137.3831  156.5309 C.3     1  UNL1        0.0464
     24 C         142.1332  137.2802  157.9791 C.3     1  UNL1        0.0234
     25 C         142.5879  138.3305  158.9488 C.3     1  UNL1        0.0725
     26 C         142.0551  136.3329  155.5612 C.ar    1  UNL1        0.1003
     27 N         141.3444  136.5796  154.2634 N.ar    1  UNL1       -0.0814
     28 O         141.0814  135.2507  153.6192 O.2     1  UNL1       -0.3536
     29 C         141.6295  134.1828  154.5188 C.ar    1  UNL1        0.1787
     30 C         141.6583  132.6878  154.4001 C.ar    1  UNL1        0.0698
     31 C         142.2890  131.8617  155.4816 C.ar    1  UNL1        0.1433
     32 F         142.3178  130.3666  155.3630 F       1  UNL1       -0.2041
     33 C         142.8908  132.5305  156.6818 C.ar    1  UNL1        0.0299
     34 C         142.8619  134.0255  156.8005 C.ar    1  UNL1        0.0067
     35 C         142.2313  134.8517  155.7190 C.ar    1  UNL1        0.0540
@<TRIPOS>UNITY_ATOM_ATTR
17 1
charge 1
18 1
charge -1
@<TRIPOS>BOND
     1    16    17    2
     2    17    18    1
     3    17    10    1
     4    10    11   ar
     5    11    12   ar
     6    12    13   ar
     7    13     7    1
     8     7     8    2
     9     7     9    2
    10     7     1    1
    11     1     2    1
    12     2     3    1
    13     3     4    1
    14     4    19    1
    15    19    20    1
    16    20    21    1
    17    21    22    1
    18    22    23    1
    19    23    26    1
    20    26    27   ar
    21    27    28   ar
    22    28    29   ar
    23    29    30   ar
    24    30    31   ar
    25    31    32    1
    26    31    33   ar
    27    33    34   ar
    28    34    35   ar
    29    23    24    1
    30    24    25    1
    31     4     5    1
    32     5     6    1
    33    13    14   ar
    34    14    15   ar
    35    15    10   ar
    36     6     1    1
    37    25    20    1
    38    35    26   ar
    39    35    29   ar
@<TRIPOS>MOLECULE
*****
 35 39 0 0 0
SMALL
GASTEIGER

@<TRIPOS>ATOM
      1 N         140.1504  140.8597  162.8578 N.3     1  UNL1       -0.1555
      2 C         140.5432  139.5995  162.1451 C.3     1  UNL1        0.0958
      3 C         140.6247  139.5791  160.6474 C.3     1  UNL1        0.0206
      4 C         140.3133  140.8189  159.8625 C.3     1  UNL1        0.0189
      5 C         139.9205  142.0790  160.5751 C.3     1  UNL1        0.0206
      6 C         139.8390  142.0994  162.0728 C.3     1  UNL1        0.0958
      7 S         140.0689  140.8801  164.3554 S.O2    1  UNL1        0.0633
      8 O         138.9046  139.9356  164.3049 O.2     1  UNL1       -0.1528
      9 O         141.2331  141.8245  164.4059 O.2     1  UNL1       -0.1528
     10 C         139.8243  140.9411  168.8483 C.ar    1  UNL1        0.2901
     11 C         139.2222  139.8022  168.0798 C.ar    1  UNL1        0.0766
     12 C         139.3038  139.7819  166.5822 C.ar    1  UNL1        0.0262
     13 C         139.9874  140.9004  165.8531 C.ar    1  UNL1        0.1226
     14 C         140.5894  142.0393  166.6215 C.ar    1  UNL1        0.0262
     15 C         140.5079  142.0596  168.1192 C.ar    1  UNL1        0.0766
     16 O         139.8359  142.2636  171.0846 O.2     1  UNL1        0.0415
     17 N         139.7427  140.9614  170.3459 N.pl3   1  UNL1        0.0809
     18 O         139.5680  139.6794  171.1050 O.co2   1  UNL1       -0.5760
     19 C         140.3948  140.7985  158.3649 C.3     1  UNL1        0.0721
     20 N         140.7465  139.5275  157.6501 N.3     1  UNL1       -0.2727
     21 C         139.6646  138.5702  157.2461 C.3     1  UNL1        0.0725
     22 C         140.0163  137.2992  156.5313 C.3     1  UNL1        0.0234
     23 C         141.4499  136.9854  156.2206 C.3     1  UNL1        0.0464
     24 C         142.5317  137.9427  156.6246 C.3     1  UNL1        0.0234
     25 C         142.1800  139.2137  157.3394 C.3     1  UNL1        0.0725
     26 C         141.8016  135.7144  155.5058 C.ar    1  UNL1        0.1003
     27 N         141.3273  135.3099  154.1415 N.ar    1  UNL1       -0.0814
     28 O         141.9219  133.9703  153.8225 O.2     1  UNL1       -0.3536
     29 C         142.7637  133.5469  154.9896 C.ar    1  UNL1        0.1787
     30 C         143.5883  132.3190  155.2394 C.ar    1  UNL1        0.0698
     31 C         144.3385  132.1691  156.5296 C.ar    1  UNL1        0.1433
     32 F         145.1631  130.9413  156.7794 F       1  UNL1       -0.2041
     33 C         144.2641  133.2471  157.5700 C.ar    1  UNL1        0.0299
     34 C         143.4395  134.4750  157.3202 C.ar    1  UNL1        0.0067
     35 C         142.6893  134.6248  156.0300 C.ar    1  UNL1        0.0540
@<TRIPOS>UNITY_ATOM_ATTR
17 1
charge 1
18 1
charge -1
@<TRIPOS>BOND
     1    16    17    2
     2    17    18    1
     3    17    10    1
     4    10    11   ar
     5    11    12   ar
     6    12    13   ar
     7    13     7    1
     8     7     8    2
     9     7     9    2
    10     7     1    1
    11     1     2    1
    12     2     3    1
    13     3     4    1
    14     4    19    1
    15    19    20    1
    16    20    21    1
    17    21    22    1
    18    22    23    1
    19    23    26    1
    20    26    27   ar
    21    27    28   ar
    22    28    29   ar
    23    29    30   ar
    24    30    31   ar
    25    31    32    1
    26    31    33   ar
    27    33    34   ar
    28    34    35   ar
    29    23    24    1
    30    24    25    1
    31     4     5    1
    32     5     6    1
    33    13    14   ar
    34    14    15   ar
    35    15    10   ar
    36     6     1    1
    37    25    20    1
    38    35    26   ar
    39    35    29   ar
@<TRIPOS>MOLECULE
*****
 35 39 0 0 0
SMALL
GASTEIGER

@<TRIPOS>ATOM
      1 N         142.2034  139.3717  161.8193 N.3     1  UNL1       -0.1555
      2 C         143.5186  139.4466  161.1018 C.3     1  UNL1        0.0958
      3 C         143.5585  139.4076  159.6028 C.3     1  UNL1        0.0206
      4 C         142.2831  139.2937  158.8214 C.3     1  UNL1        0.0189
      5 C         140.9680  139.2188  159.5388 C.3     1  UNL1        0.0206
      6 C         140.9281  139.2578  161.0378 C.3     1  UNL1        0.0958
      7 S         142.1635  139.4106  163.3182 S.O2    1  UNL1        0.0633
      8 O         143.4293  138.6076  163.3727 O.2     1  UNL1       -0.1528
      9 O         140.8978  140.2137  163.2637 O.2     1  UNL1       -0.1528
     10 C         142.0440  139.5275  167.8151 C.ar    1  UNL1        0.2901
     11 C         140.9724  140.2109  167.0184 C.ar    1  UNL1        0.0766
     12 C         141.0123  140.1719  165.5194 C.ar    1  UNL1        0.0262
     13 C         142.1237  139.4496  164.8173 C.ar    1  UNL1        0.1226
     14 C         143.1952  138.7662  165.6139 C.ar    1  UNL1        0.0262
     15 C         143.1554  138.8052  167.1130 C.ar    1  UNL1        0.0766
     16 O         143.2750  139.7286  170.0942 O.2     1  UNL1        0.0415
     17 N         142.0041  139.5665  169.3141 N.pl3   1  UNL1        0.0809
     18 O         140.6933  139.4433  170.0330 O.co2   1  UNL1       -0.5760
     19 C         142.3230  139.2547  157.3224 C.3     1  UNL1        0.0721
     20 N         142.4030  137.9381  156.6083 N.3     1  UNL1       -0.2727
     21 C         143.7152  137.4607  156.0601 C.3     1  UNL1        0.0725
     22 C         143.7952  136.1440  155.3460 C.3     1  UNL1        0.0234
     23 C         142.5630  135.3047  155.1799 C.3     1  UNL1        0.0464
     24 C         141.2510  135.7822  155.7280 C.3     1  UNL1        0.0234
     25 C         141.1710  137.0988  156.4422 C.3     1  UNL1        0.0725
     26 C         142.6431  133.9881  154.4658 C.ar    1  UNL1        0.1003
     27 N         141.9459  133.6358  153.1852 N.ar    1  UNL1       -0.0814
     28 O         142.3064  132.2226  152.8348 O.2     1  UNL1       -0.3536
     29 C         143.2263  131.7014  153.8988 C.ar    1  UNL1        0.1787
     30 C         143.9013  130.3742  154.0801 C.ar    1  UNL1        0.0698
     31 C         144.7844  130.1382  155.2693 C.ar    1  UNL1        0.1433
     32 F         145.4594  128.8109  155.4506 F       1  UNL1       -0.2041
     33 C         144.9925  131.2293  156.2773 C.ar    1  UNL1        0.0299
     34 C         144.3175  132.5565  156.0961 C.ar    1  UNL1        0.0067
     35 C         143.4344  132.7925  154.9068 C.ar    1  UNL1        0.0540
@<TRIPOS>UNITY_ATOM_ATTR
17 1
charge 1
18 1
charge -1
@<TRIPOS>BOND
     1    16    17    2
     2    17    18    1
     3    17    10    1
     4    10    11   ar
     5    11    12   ar
     6    12    13   ar
     7    13     7    1
     8     7     8    2
     9     7     9    2
    10     7     1    1
    11     1     2    1
    12     2     3    1
    13     3     4    1
    14     4    19    1
    15    19    20    1
    16    20    21    1
    17    21    22    1
    18    22    23    1
    19    23    26    1
    20    26    27   ar
    21    27    28   ar
    22    28    29   ar
    23    29    30   ar
    24    30    31   ar
    25    31    32    1
    26    31    33   ar
    27    33    34   ar
    28    34    35   ar
    29    23    24    1
    30    24    25    1
    31     4     5    1
    32     5     6    1
    33    13    14   ar
    34    14    15   ar
    35    15    10   ar
    36     6     1    1
    37    25    20    1
    38    35    26   ar
    39    35    29   ar
@<TRIPOS>MOLECULE
*****
 35 39 0 0 0
SMALL
GASTEIGER

@<TRIPOS>ATOM
      1 N         139.2585  143.0658  157.4271 N.3     1  UNL1       -0.1555
      2 C         138.0556  142.2075  157.1688 C.3     1  UNL1        0.0958
      3 C         137.8675  140.9304  157.9327 C.3     1  UNL1        0.0206
      4 C         138.8822  140.5116  158.9549 C.3     1  UNL1        0.0189
      5 C         140.0850  141.3698  159.2133 C.3     1  UNL1        0.0206
      6 C         140.2732  142.6469  158.4493 C.3     1  UNL1        0.0958
      7 S         139.4466  144.3429  156.6631 S.O2    1  UNL1        0.0633
      8 O         138.3287  143.9558  155.7409 O.2     1  UNL1       -0.1528
      9 O         140.5645  144.7299  157.5854 O.2     1  UNL1       -0.1528
     10 C         140.0108  148.1741  154.3713 C.ar    1  UNL1        0.2901
     11 C         139.1295  148.1490  155.5848 C.ar    1  UNL1        0.0766
     12 C         138.9414  146.8719  156.3487 C.ar    1  UNL1        0.0262
     13 C         139.6347  145.6200  155.8991 C.ar    1  UNL1        0.1226
     14 C         140.5160  145.6451  154.6857 C.ar    1  UNL1        0.0262
     15 C         140.7041  146.9223  153.9216 C.ar    1  UNL1        0.0766
     16 O         140.9258  150.6021  154.2375 O.2     1  UNL1        0.0415
     17 N         140.1989  149.4513  153.6073 N.pl3   1  UNL1        0.0809
     18 O         139.6600  149.5776  152.2131 O.co2   1  UNL1       -0.5760
     19 C         138.6941  139.2345  159.7189 C.3     1  UNL1        0.0721
     20 N         138.6478  139.2571  161.2180 N.3     1  UNL1       -0.2727
     21 C         137.9760  140.3933  161.9306 C.3     1  UNL1        0.0725
     22 C         137.9297  140.4159  163.4297 C.3     1  UNL1        0.0234
     23 C         138.5554  139.3023  164.2163 C.3     1  UNL1        0.0464
     24 C         139.2272  138.1663  163.5037 C.3     1  UNL1        0.0234
     25 C         139.2735  138.1436  162.0046 C.3     1  UNL1        0.0725
     26 C         138.5091  139.3250  165.7154 C.ar    1  UNL1        0.1003
     27 N         137.6526  138.4524  166.5843 N.ar    1  UNL1       -0.0814
     28 O         137.9255  138.8123  168.0147 O.2     1  UNL1       -0.3536
     29 C         138.9505  139.9073  168.0298 C.ar    1  UNL1        0.1787
     30 C         139.6020  140.6569  169.1539 C.ar    1  UNL1        0.0698
     31 C         140.6143  141.7232  168.8570 C.ar    1  UNL1        0.1433
     32 F         141.2659  142.4728  169.9811 F       1  UNL1       -0.2041
     33 C         140.9750  142.0400  167.4359 C.ar    1  UNL1        0.0299
     34 C         140.3235  141.2905  166.3118 C.ar    1  UNL1        0.0067
     35 C         139.3113  140.2242  166.6087 C.ar    1  UNL1        0.0540
@<TRIPOS>UNITY_ATOM_ATTR
17 1
charge 1
18 1
charge -1
@<TRIPOS>BOND
     1    16    17    2
     2    17    18    1
     3    17    10    1
     4    10    11   ar
     5    11    12   ar
     6    12    13   ar
     7    13     7    1
     8     7     8    2
     9     7     9    2
    10     7     1    1
    11     1     2    1
    12     2     3    1
    13     3     4    1
    14     4    19    1
    15    19    20    1
    16    20    21    1
    17    21    22    1
    18    22    23    1
    19    23    26    1
    20    26    27   ar
    21    27    28   ar
    22    28    29   ar
    23    29    30   ar
    24    30    31   ar
    25    31    32    1
    26    31    33   ar
    27    33    34   ar
    28    34    35   ar
    29    23    24    1
    30    24    25    1
    31     4     5    1
    32     5     6    1
    33    13    14   ar
    34    14    15   ar
    35    15    10   ar
    36     6     1    1
    37    25    20    1
    38    35    26   ar
    39    35    29   ar
@<TRIPOS>MOLECULE
*****
 35 39 0 0 0
SMALL
GASTEIGER

@<TRIPOS>ATOM
      1 N         141.8665  139.6362  163.8374 N.3     1  UNL1       -0.1555
      2 C         143.1760  138.9382  163.6175 C.3     1  UNL1        0.0958
      3 C         143.5196  138.3986  162.2607 C.3     1  UNL1        0.0206
      4 C         142.5539  138.5571  161.1239 C.3     1  UNL1        0.0189
      5 C         141.2446  139.2551  161.3438 C.3     1  UNL1        0.0206
      6 C         140.9009  139.7947  162.7006 C.3     1  UNL1        0.0958
      7 S         141.5229  140.1758  165.1941 S.O2    1  UNL1        0.0633
      8 O         141.2265  141.5148  164.5865 O.2     1  UNL1       -0.1528
      9 O         141.8192  138.8367  165.8017 O.2     1  UNL1       -0.1528
     10 C         140.4918  141.7947  169.2643 C.ar    1  UNL1        0.2901
     11 C         141.3721  142.5863  168.3432 C.ar    1  UNL1        0.0766
     12 C         141.7158  142.0467  166.9865 C.ar    1  UNL1        0.0262
     13 C         141.1792  140.7154  166.5509 C.ar    1  UNL1        0.1226
     14 C         140.2989  139.9238  167.4719 C.ar    1  UNL1        0.0262
     15 C         139.9552  140.4634  168.8287 C.ar    1  UNL1        0.0766
     16 O         140.3535  141.4849  171.8401 O.2     1  UNL1        0.0415
     17 N         140.1482  142.3343  170.6210 N.pl3   1  UNL1        0.0809
     18 O         139.5991  143.7235  170.7585 O.co2   1  UNL1       -0.5760
     19 C         142.8976  138.0176  159.7672 C.3     1  UNL1        0.0721
     20 N         143.3293  138.9517  158.6758 N.3     1  UNL1       -0.2727
     21 C         144.0191  140.2386  159.0194 C.3     1  UNL1        0.0725
     22 C         144.4509  141.1727  157.9280 C.3     1  UNL1        0.0234
     23 C         144.1927  140.8199  156.4931 C.3     1  UNL1        0.0464
     24 C         143.5028  139.5331  156.1496 C.3     1  UNL1        0.0234
     25 C         143.0711  138.5990  157.2410 C.3     1  UNL1        0.0725
     26 C         144.6244  141.7541  155.4017 C.ar    1  UNL1        0.1003
     27 N         143.7160  142.5240  154.4896 N.ar    1  UNL1       -0.0814
     28 O         144.5705  143.3280  153.5551 O.2     1  UNL1       -0.3536
     29 C         146.0070  143.0550  153.8897 C.ar    1  UNL1        0.1787
     30 C         147.2890  143.5666  153.3025 C.ar    1  UNL1        0.0698
     31 C         148.6043  143.1053  153.8567 C.ar    1  UNL1        0.1433
     32 F         149.8864  143.6168  153.2696 F       1  UNL1       -0.2041
     33 C         148.6376  142.1325  154.9981 C.ar    1  UNL1        0.0299
     34 C         147.3556  141.6210  155.5852 C.ar    1  UNL1        0.0067
     35 C         146.0403  142.0823  155.0310 C.ar    1  UNL1        0.0540
@<TRIPOS>UNITY_ATOM_ATTR
17 1
charge 1
18 1
charge -1
@<TRIPOS>BOND
     1    16    17    2
     2    17    18    1
     3    17    10    1
     4    10    11   ar
     5    11    12   ar
     6    12    13   ar
     7    13     7    1
     8     7     8    2
     9     7     9    2
    10     7     1    1
    11     1     2    1
    12     2     3    1
    13     3     4    1
    14     4    19    1
    15    19    20    1
    16    20    21    1
    17    21    22    1
    18    22    23    1
    19    23    26    1
    20    26    27   ar
    21    27    28   ar
    22    28    29   ar
    23    29    30   ar
    24    30    31   ar
    25    31    32    1
    26    31    33   ar
    27    33    34   ar
    28    34    35   ar
    29    23    24    1
    30    24    25    1
    31     4     5    1
    32     5     6    1
    33    13    14   ar
    34    14    15   ar
    35    15    10   ar
    36     6     1    1
    37    25    20    1
    38    35    26   ar
    39    35    29   ar
@<TRIPOS>MOLECULE
*****
 35 39 0 0 0
SMALL
GASTEIGER

@<TRIPOS>ATOM
      1 N         140.7471  138.4908  160.7695 N.3     1  UNL1       -0.1555
      2 C         142.1617  138.2239  160.3478 C.3     1  UNL1        0.0958
      3 C         142.4766  137.9552  158.9060 C.3     1  UNL1        0.0206
      4 C         141.3768  137.9535  157.8859 C.3     1  UNL1        0.0189
      5 C         139.9623  138.2204  158.3076 C.3     1  UNL1        0.0206
      6 C         139.6474  138.4891  159.7493 C.3     1  UNL1        0.0958
      7 S         140.4322  138.7594  162.2112 S.O2    1  UNL1        0.0633
      8 O         140.5313  140.2346  161.9579 O.2     1  UNL1       -0.1528
      9 O         140.3332  137.2843  162.4644 O.2     1  UNL1       -0.1528
     10 C         139.4877  139.5656  166.5365 C.ar    1  UNL1        0.2901
     11 C         140.5911  140.3207  165.8564 C.ar    1  UNL1        0.0766
     12 C         140.9059  140.0520  164.4146 C.ar    1  UNL1        0.0262
     13 C         140.1174  139.0282  163.6530 C.ar    1  UNL1        0.1226
     14 C         139.0141  138.2731  164.3330 C.ar    1  UNL1        0.0262
     15 C         138.6992  138.5418  165.7749 C.ar    1  UNL1        0.0766
     16 O         140.0049  140.8083  168.7587 O.2     1  UNL1        0.0415
     17 N         139.1729  139.8343  167.9782 N.pl3   1  UNL1        0.0809
     18 O         138.0260  139.1291  168.6396 O.co2   1  UNL1       -0.5760
     19 C         141.6917  137.6849  156.4442 C.3     1  UNL1        0.0721
     20 N         142.0923  136.3067  156.0082 N.3     1  UNL1       -0.2727
     21 C         143.3825  135.7128  156.4904 C.3     1  UNL1        0.0725
     22 C         143.7831  134.3346  156.0544 C.3     1  UNL1        0.0234
     23 C         142.8933  133.5503  155.1360 C.3     1  UNL1        0.0464
     24 C         141.6032  134.1442  154.6538 C.3     1  UNL1        0.0234
     25 C         141.2026  135.5224  155.0898 C.3     1  UNL1        0.0725
     26 C         143.2939  132.1721  154.7000 C.ar    1  UNL1        0.1003
     27 N         143.2858  131.6557  153.2917 N.ar    1  UNL1       -0.0814
     28 O         143.7598  130.2328  153.3171 O.2     1  UNL1       -0.3536
     29 C         144.0609  129.8698  154.7410 C.ar    1  UNL1        0.1787
     30 C         144.5600  128.6027  155.3698 C.ar    1  UNL1        0.0698
     31 C         144.7712  128.5342  156.8533 C.ar    1  UNL1        0.1433
     32 F         145.2703  127.2671  157.4821 F       1  UNL1       -0.2041
     33 C         144.4832  129.7328  157.7079 C.ar    1  UNL1        0.0299
     34 C         143.9841  130.9999  157.0792 C.ar    1  UNL1        0.0067
     35 C         143.7729  131.0683  155.5957 C.ar    1  UNL1        0.0540
@<TRIPOS>UNITY_ATOM_ATTR
17 1
charge 1
18 1
charge -1
@<TRIPOS>BOND
     1    16    17    2
     2    17    18    1
     3    17    10    1
     4    10    11   ar
     5    11    12   ar
     6    12    13   ar
     7    13     7    1
     8     7     8    2
     9     7     9    2
    10     7     1    1
    11     1     2    1
    12     2     3    1
    13     3     4    1
    14     4    19    1
    15    19    20    1
    16    20    21    1
    17    21    22    1
    18    22    23    1
    19    23    26    1
    20    26    27   ar
    21    27    28   ar
    22    28    29   ar
    23    29    30   ar
    24    30    31   ar
    25    31    32    1
    26    31    33   ar
    27    33    34   ar
    28    34    35   ar
    29    23    24    1
    30    24    25    1
    31     4     5    1
    32     5     6    1
    33    13    14   ar
    34    14    15   ar
    35    15    10   ar
    36     6     1    1
    37    25    20    1
    38    35    26   ar
    39    35    29   ar
@<TRIPOS>MOLECULE
*****
 35 39 0 0 0
SMALL
GASTEIGER

@<TRIPOS>ATOM
      1 N         135.3374  140.0784  155.6434 N.3     1  UNL1       -0.1555
      2 C         135.8638  139.1429  154.5956 C.3     1  UNL1        0.0958
      3 C         137.3409  139.0409  154.3549 C.3     1  UNL1        0.0206
      4 C         138.2915  139.8745  155.1621 C.3     1  UNL1        0.0189
      5 C         137.7652  140.8100  156.2098 C.3     1  UNL1        0.0206
      6 C         136.2882  140.9120  156.4505 C.3     1  UNL1        0.0958
      7 S         133.8604  140.1804  155.8840 S.O2    1  UNL1        0.0633
      8 O         133.9283  138.9961  156.8022 O.2     1  UNL1       -0.1528
      9 O         133.7926  141.3647  154.9660 O.2     1  UNL1       -0.1528
     10 C         129.4293  140.4862  156.6061 C.ar    1  UNL1        0.2901
     11 C         130.0956  141.4098  155.6298 C.ar    1  UNL1        0.0766
     12 C         131.5726  141.3079  155.3891 C.ar    1  UNL1        0.0262
     13 C         132.3833  140.2823  156.1247 C.ar    1  UNL1        0.1226
     14 C         131.7171  139.3588  157.1010 C.ar    1  UNL1        0.0262
     15 C         130.2399  139.4607  157.3417 C.ar    1  UNL1        0.0766
     16 O         127.2919  141.9341  156.8984 O.2     1  UNL1        0.0415
     17 N         127.9522  140.5882  156.8467 N.pl3   1  UNL1        0.0809
     18 O         127.1354  139.3443  157.0357 O.co2   1  UNL1       -0.5760
     19 C         139.7686  139.7725  154.9214 C.3     1  UNL1        0.0721
     20 N         140.4255  138.4259  154.8494 N.3     1  UNL1       -0.2727
     21 C         140.3965  137.5127  156.0390 C.3     1  UNL1        0.0725
     22 C         141.0535  136.1661  155.9670 C.3     1  UNL1        0.0234
     23 C         141.7395  135.7328  154.7054 C.3     1  UNL1        0.0464
     24 C         141.7685  136.6460  153.5159 C.3     1  UNL1        0.0234
     25 C         141.1115  137.9926  153.5879 C.3     1  UNL1        0.0725
     26 C         142.3965  134.3862  154.6334 C.ar    1  UNL1        0.1003
     27 N         142.3506  133.4440  153.4671 N.ar    1  UNL1       -0.0814
     28 O         143.1404  132.2210  153.8280 O.2     1  UNL1       -0.3536
     29 C         143.6745  132.4073  155.2173 C.ar    1  UNL1        0.1787
     30 C         144.5200  131.5313  156.0934 C.ar    1  UNL1        0.0698
     31 C         144.9058  131.9935  157.4672 C.ar    1  UNL1        0.1433
     32 F         145.7514  131.1174  158.3434 F       1  UNL1       -0.2041
     33 C         144.4460  133.3317  157.9650 C.ar    1  UNL1        0.0299
     34 C         143.6005  134.2077  157.0889 C.ar    1  UNL1        0.0067
     35 C         143.2147  133.7455  155.7150 C.ar    1  UNL1        0.0540
@<TRIPOS>UNITY_ATOM_ATTR
17 1
charge 1
18 1
charge -1
@<TRIPOS>BOND
     1    16    17    2
     2    17    18    1
     3    17    10    1
     4    10    11   ar
     5    11    12   ar
     6    12    13   ar
     7    13     7    1
     8     7     8    2
     9     7     9    2
    10     7     1    1
    11     1     2    1
    12     2     3    1
    13     3     4    1
    14     4    19    1
    15    19    20    1
    16    20    21    1
    17    21    22    1
    18    22    23    1
    19    23    26    1
    20    26    27   ar
    21    27    28   ar
    22    28    29   ar
    23    29    30   ar
    24    30    31   ar
    25    31    32    1
    26    31    33   ar
    27    33    34   ar
    28    34    35   ar
    29    23    24    1
    30    24    25    1
    31     4     5    1
    32     5     6    1
    33    13    14   ar
    34    14    15   ar
    35    15    10   ar
    36     6     1    1
    37    25    20    1
    38    35    26   ar
    39    35    29   ar
