@<TRIPOS>MOLECULE
*****
 39 43 0 0 0
SMALL
GASTEIGER

@<TRIPOS>ATOM
      1 C         138.5381  142.1577  158.8551 C.3     1  UNL1        0.2358
      2 C         138.2869  140.6968  159.0851 C.3     1  UNL1        0.1700
      3 O         138.5479  139.7089  157.9869 O.3     1  UNL1       -0.3793
      4 H         138.8729  140.1767  157.2018 H       1  UNL1        0.2106
      5 C         137.7746  140.2239  160.4132 C.3     1  UNL1        0.1056
      6 N         138.5058  140.5871  161.6716 N.3     1  UNL1       -0.2703
      7 C         139.9841  140.3547  161.7738 C.3     1  UNL1        0.0758
      8 C         140.7152  140.7178  163.0321 C.3     1  UNL1        0.0577
      9 C         139.9680  141.3134  164.1884 C.3     1  UNL1        0.1399
     10 C         138.4897  141.5459  164.0863 C.3     1  UNL1        0.0577
     11 C         137.7586  141.1827  162.8279 C.3     1  UNL1        0.0758
     12 C         139.3582  141.9137  165.4204 C.3     1  UNL1        0.0695
     13 C         140.4507  142.1113  166.4292 C.ar    1  UNL1        0.0161
     14 C         140.4414  142.6649  167.8233 C.ar    1  UNL1        0.0102
     15 C         141.7171  142.7404  168.6088 C.ar    1  UNL1        0.0576
     16 CL        141.7078  143.2939  170.0029 Cl      1  UNL1       -0.0823
     17 C         143.0020  142.2623  168.0002 C.ar    1  UNL1        0.0145
     18 C         143.0113  141.7087  166.6061 C.ar    1  UNL1        0.0374
     19 C         141.7357  141.6332  165.8206 C.ar    1  UNL1        0.1343
     20 O         141.4374  141.1401  164.4357 O.3     1  UNL1       -0.4825
     21 O         139.6080  142.5932  157.8983 O.3     1  UNL1       -0.4714
     22 C         140.3848  145.0407  157.5031 C.ar    1  UNL1        0.0870
     23 C         140.2521  146.3437  156.7720 C.ar    1  UNL1        0.0322
     24 C         139.2098  146.5022  155.7049 C.ar    1  UNL1        0.0927
     25 CL        139.0771  147.8052  154.9738 Cl      1  UNL1       -0.0790
     26 C         138.3003  145.3577  155.3690 C.ar    1  UNL1        0.1472
     27 O         137.2580  145.5162  154.3019 O.3     1  UNL1       -0.5045
     28 C         138.4330  144.0546  156.1001 C.ar    1  UNL1        0.0756
     29 C         139.4753  143.8961  157.1672 C.ar    1  UNL1        0.1551
     30 H         137.1751  146.3302  153.8452 H       1  UNL1        0.2922
     31 O         139.6019  145.1724  160.3960 O.2     1  UNL1       -0.2525
     32 C         141.0356  144.9481  160.0166 C.2     1  UNL1        0.3045
     33 N         141.4271  144.8822  158.5701 N.am    1  UNL1       -0.2658
     34 N         142.0778  144.7896  161.0836 N.am    1  UNL1       -0.2903
     35 H         142.3681  144.7350  158.3211 H       1  UNL1        0.1565
     36 H         143.0189  144.6423  160.8346 H       1  UNL1        0.1509
     37 C         141.6864  144.8554  162.5301 C.3     1  UNL1        0.0732
     38 C         142.0686  144.8558  163.9806 C.3     1  UNL1        0.0213
     39 C         140.6261  144.9690  163.5851 C.3     1  UNL1        0.0213
@<TRIPOS>BOND
     1    31    32    2
     2    32    33   am
     3    33    22    1
     4    22    23   ar
     5    23    24   ar
     6    24    25    1
     7    24    26   ar
     8    26    27    1
     9    26    28   ar
    10    28    29   ar
    11    29    21    1
    12    21     1    1
    13     1     2    1
    14     2     3    1
    15     2     5    1
    16     5     6    1
    17     6     7    1
    18     7     8    1
    19     8     9    1
    20     9    10    1
    21    10    11    1
    22     9    12    1
    23    12    13    1
    24    13    14   ar
    25    14    15   ar
    26    15    16    1
    27    15    17   ar
    28    17    18   ar
    29    18    19   ar
    30    19    20    1
    31    32    34   am
    32    34    37    1
    33    37    38    1
    34    38    39    1
    35    29    22   ar
    36    11     6    1
    37    19    13   ar
    38    39    37    1
    39    20     9    1
    40    33    35    1
    41    27    30    1
    42     3     4    1
    43    34    36    1
@<TRIPOS>MOLECULE
*****
 39 43 0 0 0
SMALL
GASTEIGER

@<TRIPOS>ATOM
      1 C         143.5521  142.7105  159.5491 C.3     1  UNL1        0.2358
      2 C         144.2756  142.1714  160.7475 C.3     1  UNL1        0.1700
      3 O         145.5084  142.8610  161.2522 O.3     1  UNL1       -0.3793
      4 H         145.6987  143.6319  160.6950 H       1  UNL1        0.2106
      5 C         143.7664  140.9428  161.4411 C.3     1  UNL1        0.1056
      6 N         143.1690  141.0491  162.8129 N.3     1  UNL1       -0.2703
      7 C         142.9758  139.8158  163.6445 C.3     1  UNL1        0.0758
      8 C         142.3785  139.9223  165.0163 C.3     1  UNL1        0.0577
      9 C         141.9743  141.2620  165.5564 C.3     1  UNL1        0.1399
     10 C         142.1674  142.4953  164.7248 C.3     1  UNL1        0.0577
     11 C         142.7648  142.3889  163.3531 C.3     1  UNL1        0.0758
     12 C         141.5246  142.5264  166.2266 C.3     1  UNL1        0.0695
     13 C         140.9940  142.1685  167.5834 C.ar    1  UNL1        0.0161
     14 C         140.4158  143.0034  168.6872 C.ar    1  UNL1        0.0102
     15 C         139.9594  142.3527  169.9594 C.ar    1  UNL1        0.0576
     16 CL        139.3811  143.1876  171.0632 Cl      1  UNL1       -0.0823
     17 C         140.0812  140.8672  170.1277 C.ar    1  UNL1        0.0145
     18 C         140.6595  140.0323  169.0238 C.ar    1  UNL1        0.0374
     19 C         141.1159  140.6829  167.7516 C.ar    1  UNL1        0.1343
     20 O         141.7217  140.1227  166.4990 O.3     1  UNL1       -0.4825
     21 O         142.0615  142.8735  159.5836 O.3     1  UNL1       -0.4714
     22 C         140.8981  145.1625  159.1870 C.ar    1  UNL1        0.0870
     23 C         140.2287  146.1367  158.2636 C.ar    1  UNL1        0.0322
     24 C         140.0531  145.7962  156.8134 C.ar    1  UNL1        0.0927
     25 CL        139.3836  146.7703  155.8899 Cl      1  UNL1       -0.0790
     26 C         140.5469  144.4814  156.2865 C.ar    1  UNL1        0.1472
     27 O         140.3713  144.1409  154.8363 O.3     1  UNL1       -0.5045
     28 C         141.2164  143.5072  157.2100 C.ar    1  UNL1        0.0756
     29 C         141.3920  143.8477  158.6602 C.ar    1  UNL1        0.1551
     30 H         139.9531  144.7495  154.2594 H       1  UNL1        0.2922
     31 O         138.8799  144.2309  161.2016 O.2     1  UNL1       -0.2525
     32 C         140.0646  145.0372  161.6445 C.2     1  UNL1        0.3045
     33 N         141.0737  145.5030  160.6373 N.am    1  UNL1       -0.2658
     34 N         140.2402  145.3777  163.0948 N.am    1  UNL1       -0.2903
     35 H         141.8513  146.0323  160.9280 H       1  UNL1        0.1565
     36 H         141.0178  145.9070  163.3855 H       1  UNL1        0.1509
     37 C         139.2311  144.9119  164.1021 C.3     1  UNL1        0.0732
     38 C         138.7316  144.8681  165.5158 C.3     1  UNL1        0.0213
     39 C         137.9829  144.1489  164.4332 C.3     1  UNL1        0.0213
@<TRIPOS>BOND
     1    31    32    2
     2    32    33   am
     3    33    22    1
     4    22    23   ar
     5    23    24   ar
     6    24    25    1
     7    24    26   ar
     8    26    27    1
     9    26    28   ar
    10    28    29   ar
    11    29    21    1
    12    21     1    1
    13     1     2    1
    14     2     3    1
    15     2     5    1
    16     5     6    1
    17     6     7    1
    18     7     8    1
    19     8     9    1
    20     9    10    1
    21    10    11    1
    22     9    12    1
    23    12    13    1
    24    13    14   ar
    25    14    15   ar
    26    15    16    1
    27    15    17   ar
    28    17    18   ar
    29    18    19   ar
    30    19    20    1
    31    32    34   am
    32    34    37    1
    33    37    38    1
    34    38    39    1
    35    29    22   ar
    36    11     6    1
    37    19    13   ar
    38    39    37    1
    39    20     9    1
    40    33    35    1
    41    27    30    1
    42     3     4    1
    43    34    36    1
@<TRIPOS>MOLECULE
*****
 39 43 0 0 0
SMALL
GASTEIGER

@<TRIPOS>ATOM
      1 C         139.8162  143.8949  160.1318 C.3     1  UNL1        0.2358
      2 C         140.7845  144.8999  160.6817 C.3     1  UNL1        0.1700
      3 O         141.9528  145.3467  159.8537 O.3     1  UNL1       -0.3793
      4 H         141.9341  144.8928  158.9966 H       1  UNL1        0.2106
      5 C         140.5846  145.4581  162.0595 C.3     1  UNL1        0.1056
      6 N         140.7096  144.5631  163.2568 N.3     1  UNL1       -0.2703
      7 C         139.6883  144.6302  164.3532 C.3     1  UNL1        0.0758
      8 C         139.8133  143.7352  165.5504 C.3     1  UNL1        0.0577
      9 C         140.9596  142.7730  165.6511 C.3     1  UNL1        0.1399
     10 C         141.9810  142.7059  164.5546 C.3     1  UNL1        0.0577
     11 C         141.8560  143.6009  163.3574 C.3     1  UNL1        0.0758
     12 C         142.0456  141.7662  165.8897 C.3     1  UNL1        0.0695
     13 C         141.7778  141.0985  167.2060 C.ar    1  UNL1        0.0161
     14 C         142.5117  140.0263  167.9554 C.ar    1  UNL1        0.0102
     15 C         141.9942  139.5483  169.2797 C.ar    1  UNL1        0.0576
     16 CL        142.7282  138.4761  170.0290 Cl      1  UNL1       -0.0823
     17 C         140.7428  140.1426  169.8546 C.ar    1  UNL1        0.0145
     18 C         140.0087  141.2149  169.1052 C.ar    1  UNL1        0.0374
     19 C         140.5262  141.6929  167.7810 C.ar    1  UNL1        0.1343
     20 O         140.0206  142.7277  166.8200 O.3     1  UNL1       -0.4825
     21 O         140.1686  142.4369  160.1300 O.3     1  UNL1       -0.4714
     22 C         140.8326  140.4645  161.6852 C.ar    1  UNL1        0.0870
     23 C         140.5786  139.6301  162.9055 C.ar    1  UNL1        0.0322
     24 C         139.4064  139.9335  163.7909 C.ar    1  UNL1        0.0927
     25 CL        139.1523  139.0991  165.0111 Cl      1  UNL1       -0.0790
     26 C         138.4883  141.0714  163.4560 C.ar    1  UNL1        0.1472
     27 O         137.3161  141.3749  164.3413 O.3     1  UNL1       -0.5045
     28 C         138.7423  141.9059  162.2356 C.ar    1  UNL1        0.0756
     29 C         139.9145  141.6025  161.3503 C.ar    1  UNL1        0.1551
     30 H         137.1574  140.8536  165.1036 H       1  UNL1        0.2922
     31 O         140.5422  138.5076  159.4301 O.2     1  UNL1       -0.2525
     32 C         141.8596  139.1826  159.6723 C.2     1  UNL1        0.3045
     33 N         142.0048  140.1611  160.7999 N.am    1  UNL1       -0.2658
     34 N         143.0318  138.8792  158.7869 N.am    1  UNL1       -0.2903
     35 H         142.8695  140.6041  160.9588 H       1  UNL1        0.1565
     36 H         143.8965  139.3222  158.9459 H       1  UNL1        0.1509
     37 C         142.8866  137.9007  157.6593 C.3     1  UNL1        0.0732
     38 C         142.8711  136.4860  157.1609 C.3     1  UNL1        0.0213
     39 C         142.6505  137.6205  156.2048 C.3     1  UNL1        0.0213
@<TRIPOS>BOND
     1    31    32    2
     2    32    33   am
     3    33    22    1
     4    22    23   ar
     5    23    24   ar
     6    24    25    1
     7    24    26   ar
     8    26    27    1
     9    26    28   ar
    10    28    29   ar
    11    29    21    1
    12    21     1    1
    13     1     2    1
    14     2     3    1
    15     2     5    1
    16     5     6    1
    17     6     7    1
    18     7     8    1
    19     8     9    1
    20     9    10    1
    21    10    11    1
    22     9    12    1
    23    12    13    1
    24    13    14   ar
    25    14    15   ar
    26    15    16    1
    27    15    17   ar
    28    17    18   ar
    29    18    19   ar
    30    19    20    1
    31    32    34   am
    32    34    37    1
    33    37    38    1
    34    38    39    1
    35    29    22   ar
    36    11     6    1
    37    19    13   ar
    38    39    37    1
    39    20     9    1
    40    33    35    1
    41    27    30    1
    42     3     4    1
    43    34    36    1
@<TRIPOS>MOLECULE
*****
 39 43 0 0 0
SMALL
GASTEIGER

@<TRIPOS>ATOM
      1 C         143.1279  139.2303  159.4864 C.3     1  UNL1        0.2358
      2 C         143.5751  138.3547  160.6194 C.3     1  UNL1        0.1700
      3 O         143.2616  136.8880  160.6026 O.3     1  UNL1       -0.3793
      4 H         142.7687  136.6719  159.7955 H       1  UNL1        0.2106
      5 C         144.3359  138.9459  161.7690 C.3     1  UNL1        0.1056
      6 N         143.6095  139.3655  163.0125 N.3     1  UNL1       -0.2703
      7 C         142.6426  138.4257  163.6696 C.3     1  UNL1        0.0758
      8 C         141.9163  138.8453  164.9131 C.3     1  UNL1        0.0577
      9 C         142.1567  140.2048  165.4995 C.3     1  UNL1        0.1399
     10 C         143.1236  141.1447  164.8424 C.3     1  UNL1        0.0577
     11 C         143.8499  140.7251  163.5989 C.3     1  UNL1        0.0758
     12 C         142.2937  141.5255  166.1973 C.3     1  UNL1        0.0695
     13 C         141.3874  141.5144  167.3927 C.ar    1  UNL1        0.0161
     14 C         141.1069  142.5416  168.4491 C.ar    1  UNL1        0.0102
     15 C         140.1293  142.2412  169.5464 C.ar    1  UNL1        0.0576
     16 CL        139.8487  143.2683  170.6029 Cl      1  UNL1       -0.0823
     17 C         139.4322  140.9136  169.5873 C.ar    1  UNL1        0.0145
     18 C         139.7128  139.8864  168.5308 C.ar    1  UNL1        0.0374
     19 C         140.6904  140.1868  167.4335 C.ar    1  UNL1        0.1343
     20 O         141.1658  139.3774  166.2634 O.3     1  UNL1       -0.4825
     21 O         141.6836  139.6151  159.3609 O.3     1  UNL1       -0.4714
     22 C         140.8193  140.9284  161.4294 C.ar    1  UNL1        0.0870
     23 C         139.9540  141.0026  162.6523 C.ar    1  UNL1        0.0322
     24 C         139.0875  139.8378  163.0298 C.ar    1  UNL1        0.0927
     25 CL        138.2222  139.9120  164.2528 Cl      1  UNL1       -0.0790
     26 C         139.0865  138.5987  162.1844 C.ar    1  UNL1        0.1472
     27 O         138.2200  137.4339  162.5620 O.3     1  UNL1       -0.5045
     28 C         139.9518  138.5245  160.9614 C.ar    1  UNL1        0.0756
     29 C         140.8182  139.6893  160.5839 C.ar    1  UNL1        0.1551
     30 H         137.6795  137.4803  163.3259 H       1  UNL1        0.2922
     31 O         139.9688  142.7786  159.2264 O.2     1  UNL1       -0.2525
     32 C         141.2605  143.0183  159.9503 C.2     1  UNL1        0.3045
     33 N         141.6857  142.0932  161.0518 N.am    1  UNL1       -0.2658
     34 N         142.1269  144.1831  159.5728 N.am    1  UNL1       -0.2903
     35 H         142.5335  142.2505  161.5270 H       1  UNL1        0.1565
     36 H         142.9746  144.3404  160.0480 H       1  UNL1        0.1509
     37 C         141.7016  145.1082  158.4713 C.3     1  UNL1        0.0732
     38 C         142.0292  145.8962  157.2377 C.3     1  UNL1        0.0213
     39 C         140.6376  145.9226  157.7971 C.3     1  UNL1        0.0213
@<TRIPOS>BOND
     1    31    32    2
     2    32    33   am
     3    33    22    1
     4    22    23   ar
     5    23    24   ar
     6    24    25    1
     7    24    26   ar
     8    26    27    1
     9    26    28   ar
    10    28    29   ar
    11    29    21    1
    12    21     1    1
    13     1     2    1
    14     2     3    1
    15     2     5    1
    16     5     6    1
    17     6     7    1
    18     7     8    1
    19     8     9    1
    20     9    10    1
    21    10    11    1
    22     9    12    1
    23    12    13    1
    24    13    14   ar
    25    14    15   ar
    26    15    16    1
    27    15    17   ar
    28    17    18   ar
    29    18    19   ar
    30    19    20    1
    31    32    34   am
    32    34    37    1
    33    37    38    1
    34    38    39    1
    35    29    22   ar
    36    11     6    1
    37    19    13   ar
    38    39    37    1
    39    20     9    1
    40    33    35    1
    41    27    30    1
    42     3     4    1
    43    34    36    1
@<TRIPOS>MOLECULE
*****
 39 43 0 0 0
SMALL
GASTEIGER

@<TRIPOS>ATOM
      1 C         142.5393  140.8554  159.9939 C.3     1  UNL1        0.2358
      2 C         143.8189  141.4671  160.4823 C.3     1  UNL1        0.1700
      3 O         144.4743  142.5632  159.6956 O.3     1  UNL1       -0.3793
      4 H         143.9455  142.7547  158.9053 H       1  UNL1        0.2106
      5 C         144.4430  140.9827  161.7574 C.3     1  UNL1        0.1056
      6 N         143.6833  141.0770  163.0474 N.3     1  UNL1       -0.2703
      7 C         142.9614  139.8758  163.5822 C.3     1  UNL1        0.0758
      8 C         142.2018  139.9702  164.8721 C.3     1  UNL1        0.0577
      9 C         142.1641  141.2657  165.6273 C.3     1  UNL1        0.1399
     10 C         142.8860  142.4668  165.0925 C.3     1  UNL1        0.0577
     11 C         143.6456  142.3725  163.8025 C.3     1  UNL1        0.0758
     12 C         142.0371  142.4873  166.4884 C.3     1  UNL1        0.0695
     13 C         141.1926  142.1315  167.6761 C.ar    1  UNL1        0.0161
     14 C         140.7322  142.9339  168.8568 C.ar    1  UNL1        0.0102
     15 C         139.8768  142.2949  169.9103 C.ar    1  UNL1        0.0576
     16 CL        139.4165  143.0973  171.0911 Cl      1  UNL1       -0.0823
     17 C         139.4818  140.8535  169.7832 C.ar    1  UNL1        0.0145
     18 C         139.9422  140.0510  168.6024 C.ar    1  UNL1        0.0374
     19 C         140.7975  140.6900  167.5488 C.ar    1  UNL1        0.1343
     20 O         141.3979  140.1549  166.2827 O.3     1  UNL1       -0.4825
     21 O         141.2845  141.6761  159.9501 O.3     1  UNL1       -0.4714
     22 C         141.2250  143.8978  161.2956 C.ar    1  UNL1        0.0870
     23 C         140.7932  144.6729  162.5050 C.ar    1  UNL1        0.0322
     24 C         139.9890  144.0013  163.5784 C.ar    1  UNL1        0.0927
     25 CL        139.5572  144.7763  164.7879 Cl      1  UNL1       -0.0790
     26 C         139.6166  142.5546  163.4424 C.ar    1  UNL1        0.1472
     27 O         138.8124  141.8830  164.5158 O.3     1  UNL1       -0.5045
     28 C         140.0485  141.7795  162.2329 C.ar    1  UNL1        0.0756
     29 C         140.8527  142.4511  161.1595 C.ar    1  UNL1        0.1551
     30 H         138.5427  142.3672  165.2713 H       1  UNL1        0.2922
     31 O         139.9484  144.5749  158.6666 O.2     1  UNL1       -0.2525
     32 C         141.3909  144.9080  158.9077 C.2     1  UNL1        0.3045
     33 N         142.0292  144.5694  160.2222 N.am    1  UNL1       -0.2658
     34 N         142.1951  145.5796  157.8343 N.am    1  UNL1       -0.2903
     35 H         142.9760  144.7880  160.3804 H       1  UNL1        0.1565
     36 H         143.1419  145.7982  157.9925 H       1  UNL1        0.1509
     37 C         141.5568  145.9181  156.5198 C.3     1  UNL1        0.0732
     38 C         141.5241  145.8057  155.0244 C.3     1  UNL1        0.0213
     39 C         140.4839  146.6169  155.7384 C.3     1  UNL1        0.0213
@<TRIPOS>BOND
     1    31    32    2
     2    32    33   am
     3    33    22    1
     4    22    23   ar
     5    23    24   ar
     6    24    25    1
     7    24    26   ar
     8    26    27    1
     9    26    28   ar
    10    28    29   ar
    11    29    21    1
    12    21     1    1
    13     1     2    1
    14     2     3    1
    15     2     5    1
    16     5     6    1
    17     6     7    1
    18     7     8    1
    19     8     9    1
    20     9    10    1
    21    10    11    1
    22     9    12    1
    23    12    13    1
    24    13    14   ar
    25    14    15   ar
    26    15    16    1
    27    15    17   ar
    28    17    18   ar
    29    18    19   ar
    30    19    20    1
    31    32    34   am
    32    34    37    1
    33    37    38    1
    34    38    39    1
    35    29    22   ar
    36    11     6    1
    37    19    13   ar
    38    39    37    1
    39    20     9    1
    40    33    35    1
    41    27    30    1
    42     3     4    1
    43    34    36    1
@<TRIPOS>MOLECULE
*****
 39 43 0 0 0
SMALL
GASTEIGER

@<TRIPOS>ATOM
      1 C         143.2871  139.6989  159.5013 C.3     1  UNL1        0.2358
      2 C         142.1954  138.7709  159.9455 C.3     1  UNL1        0.1700
      3 O         140.9946  138.5538  159.0732 O.3     1  UNL1       -0.3793
      4 H         141.0816  139.0838  158.2655 H       1  UNL1        0.2106
      5 C         142.3046  138.0602  161.2619 C.3     1  UNL1        0.1056
      6 N         142.2093  138.8351  162.5428 N.3     1  UNL1       -0.2703
      7 C         143.3038  138.7343  163.5635 C.3     1  UNL1        0.0758
      8 C         143.2084  139.5091  164.8443 C.3     1  UNL1        0.0577
      9 C         142.0186  140.3847  165.1044 C.3     1  UNL1        0.1399
     10 C         140.9241  140.4855  164.0836 C.3     1  UNL1        0.0577
     11 C         141.0195  139.7106  162.8028 C.3     1  UNL1        0.0758
     12 C         140.8955  141.2962  165.5019 C.3     1  UNL1        0.0695
     13 C         141.2124  141.8589  166.8559 C.ar    1  UNL1        0.0161
     14 C         140.4704  142.8118  167.7455 C.ar    1  UNL1        0.0102
     15 C         141.0472  143.2010  169.0743 C.ar    1  UNL1        0.0576
     16 CL        140.3053  144.1538  169.9640 Cl      1  UNL1       -0.0823
     17 C         142.3661  142.6373  169.5135 C.ar    1  UNL1        0.0145
     18 C         143.1081  141.6844  168.6239 C.ar    1  UNL1        0.0374
     19 C         142.5313  141.2952  167.2950 C.ar    1  UNL1        0.1343
     20 O         143.0295  140.3842  166.2126 O.3     1  UNL1       -0.4825
     21 O         143.1238  141.1811  159.6636 O.3     1  UNL1       -0.4714
     22 C         142.4667  142.8488  161.5443 C.ar    1  UNL1        0.0870
     23 C         142.7554  143.4948  162.8670 C.ar    1  UNL1        0.0322
     24 C         143.9899  143.1189  163.6316 C.ar    1  UNL1        0.0927
     25 CL        144.2787  143.7649  164.9542 Cl      1  UNL1       -0.0790
     26 C         144.9358  142.0972  163.0736 C.ar    1  UNL1        0.1472
     27 O         146.1703  141.7214  163.8382 O.3     1  UNL1       -0.5045
     28 C         144.6470  141.4512  161.7509 C.ar    1  UNL1        0.0756
     29 C         143.4125  141.8270  160.9863 C.ar    1  UNL1        0.1551
     30 H         146.3507  142.1249  164.6644 H       1  UNL1        0.2922
     31 O         142.6744  144.6397  159.1466 O.2     1  UNL1       -0.2525
     32 C         141.3360  144.1201  159.5808 C.2     1  UNL1        0.3045
     33 N         141.2321  143.2247  160.7797 N.am    1  UNL1       -0.2658
     34 N         140.1014  144.4959  158.8162 N.am    1  UNL1       -0.2903
     35 H         140.3537  142.8836  161.0648 H       1  UNL1        0.1565
     36 H         139.2230  144.1549  159.1013 H       1  UNL1        0.1509
     37 C         140.2053  145.3914  157.6173 C.3     1  UNL1        0.0732
     38 C         140.9474  145.8452  156.3953 C.3     1  UNL1        0.0213
     39 C         139.6431  146.4884  156.7627 C.3     1  UNL1        0.0213
@<TRIPOS>BOND
     1    31    32    2
     2    32    33   am
     3    33    22    1
     4    22    23   ar
     5    23    24   ar
     6    24    25    1
     7    24    26   ar
     8    26    27    1
     9    26    28   ar
    10    28    29   ar
    11    29    21    1
    12    21     1    1
    13     1     2    1
    14     2     3    1
    15     2     5    1
    16     5     6    1
    17     6     7    1
    18     7     8    1
    19     8     9    1
    20     9    10    1
    21    10    11    1
    22     9    12    1
    23    12    13    1
    24    13    14   ar
    25    14    15   ar
    26    15    16    1
    27    15    17   ar
    28    17    18   ar
    29    18    19   ar
    30    19    20    1
    31    32    34   am
    32    34    37    1
    33    37    38    1
    34    38    39    1
    35    29    22   ar
    36    11     6    1
    37    19    13   ar
    38    39    37    1
    39    20     9    1
    40    33    35    1
    41    27    30    1
    42     3     4    1
    43    34    36    1
@<TRIPOS>MOLECULE
*****
 39 43 0 0 0
SMALL
GASTEIGER

@<TRIPOS>ATOM
      1 C         138.8445  138.0711  161.4948 C.3     1  UNL1        0.2358
      2 C         138.6805  139.4318  160.8851 C.3     1  UNL1        0.1700
      3 O         138.8027  139.6081  159.4005 O.3     1  UNL1       -0.3793
      4 H         138.9874  138.7503  158.9871 H       1  UNL1        0.2106
      5 C         138.3944  140.6162  161.7599 C.3     1  UNL1        0.1056
      6 N         139.1423  140.7954  163.0478 N.3     1  UNL1       -0.2703
      7 C         138.6544  140.1253  164.2980 C.3     1  UNL1        0.0758
      8 C         139.4023  140.3046  165.5858 C.3     1  UNL1        0.0577
      9 C         140.6381  141.1538  165.6234 C.3     1  UNL1        0.1399
     10 C         141.1261  141.8239  164.3733 C.3     1  UNL1        0.0577
     11 C         140.3782  141.6446  163.0855 C.3     1  UNL1        0.0758
     12 C         141.8829  141.9689  165.8141 C.3     1  UNL1        0.0695
     13 C         142.2867  141.8683  167.2553 C.ar    1  UNL1        0.0161
     14 C         143.4320  142.4620  168.0205 C.ar    1  UNL1        0.0102
     15 C         143.5821  142.1787  169.4859 C.ar    1  UNL1        0.0576
     16 CL        144.7274  142.7725  170.2511 Cl      1  UNL1       -0.0823
     17 C         142.5869  141.3015  170.1859 C.ar    1  UNL1        0.0145
     18 C         141.4415  140.7077  169.4206 C.ar    1  UNL1        0.0374
     19 C         141.2914  140.9910  167.9553 C.ar    1  UNL1        0.1343
     20 O         140.2726  140.5495  166.9468 O.3     1  UNL1       -0.4825
     21 O         140.1877  137.4036  161.4891 O.3     1  UNL1       -0.4714
     22 C         142.3085  138.9007  161.3822 C.ar    1  UNL1        0.0870
     23 C         143.4733  139.5537  162.0652 C.ar    1  UNL1        0.0322
     24 C         143.6823  139.3629  163.5383 C.ar    1  UNL1        0.0927
     25 CL        144.8471  140.0159  164.2214 Cl      1  UNL1       -0.0790
     26 C         142.7265  138.5190  164.3283 C.ar    1  UNL1        0.1472
     27 O         142.9355  138.3281  165.8013 O.3     1  UNL1       -0.5045
     28 C         141.5616  137.8658  163.6452 C.ar    1  UNL1        0.0756
     29 C         141.3526  138.0567  162.1722 C.ar    1  UNL1        0.1551
     30 H         143.6631  138.7360  166.2280 H       1  UNL1        0.2922
     31 O         143.3287  136.8504  159.4443 O.2     1  UNL1       -0.2525
     32 C         142.6096  138.0664  158.9402 C.2     1  UNL1        0.3045
     33 N         142.0995  139.0916  159.9091 N.am    1  UNL1       -0.2658
     34 N         142.4006  138.2573  157.4671 N.am    1  UNL1       -0.2903
     35 H         141.6275  139.8897  159.5782 H       1  UNL1        0.1565
     36 H         141.9286  139.0554  157.1363 H       1  UNL1        0.1509
     37 C         142.9107  137.2322  156.4982 C.3     1  UNL1        0.0732
     38 C         144.0237  136.6789  155.6586 C.3     1  UNL1        0.0213
     39 C         142.6812  136.0099  155.6596 C.3     1  UNL1        0.0213
@<TRIPOS>BOND
     1    31    32    2
     2    32    33   am
     3    33    22    1
     4    22    23   ar
     5    23    24   ar
     6    24    25    1
     7    24    26   ar
     8    26    27    1
     9    26    28   ar
    10    28    29   ar
    11    29    21    1
    12    21     1    1
    13     1     2    1
    14     2     3    1
    15     2     5    1
    16     5     6    1
    17     6     7    1
    18     7     8    1
    19     8     9    1
    20     9    10    1
    21    10    11    1
    22     9    12    1
    23    12    13    1
    24    13    14   ar
    25    14    15   ar
    26    15    16    1
    27    15    17   ar
    28    17    18   ar
    29    18    19   ar
    30    19    20    1
    31    32    34   am
    32    34    37    1
    33    37    38    1
    34    38    39    1
    35    29    22   ar
    36    11     6    1
    37    19    13   ar
    38    39    37    1
    39    20     9    1
    40    33    35    1
    41    27    30    1
    42     3     4    1
    43    34    36    1
@<TRIPOS>MOLECULE
*****
 39 43 0 0 0
SMALL
GASTEIGER

@<TRIPOS>ATOM
      1 C         141.7319  140.5354  158.4106 C.3     1  UNL1        0.2358
      2 C         143.0264  139.8303  158.6884 C.3     1  UNL1        0.1700
      3 O         143.3038  138.4967  158.0601 O.3     1  UNL1       -0.3793
      4 H         142.5500  138.2363  157.5081 H       1  UNL1        0.2106
      5 C         144.0434  140.4587  159.5943 C.3     1  UNL1        0.1056
      6 N         143.8150  140.4815  161.0767 N.3     1  UNL1       -0.2703
      7 C         143.7699  141.7900  161.8086 C.3     1  UNL1        0.0758
      8 C         143.5415  141.8127  163.2909 C.3     1  UNL1        0.0577
      9 C         143.3582  140.5270  164.0413 C.3     1  UNL1        0.1399
     10 C         143.4032  139.2184  163.3094 C.3     1  UNL1        0.0577
     11 C         143.6316  139.1957  161.8271 C.3     1  UNL1        0.0758
     12 C         143.1593  139.3286  164.9213 C.3     1  UNL1        0.0695
     13 C         142.9668  139.8131  166.3278 C.ar    1  UNL1        0.0161
     14 C         142.7291  139.0839  167.6169 C.ar    1  UNL1        0.0102
     15 C         142.5712  139.8526  168.8953 C.ar    1  UNL1        0.0576
     16 CL        142.3335  139.1234  170.1844 Cl      1  UNL1       -0.0823
     17 C         142.6511  141.3504  168.8846 C.ar    1  UNL1        0.0145
     18 C         142.8888  142.0796  167.5955 C.ar    1  UNL1        0.0374
     19 C         143.0467  141.3110  166.3171 C.ar    1  UNL1        0.1343
     20 O         143.2885  141.7522  164.9040 O.3     1  UNL1       -0.4825
     21 O         140.7567  140.7792  159.5239 O.3     1  UNL1       -0.4714
     22 C         139.5657  142.4147  161.1539 C.ar    1  UNL1        0.0870
     23 C         139.3518  143.8059  161.6722 C.ar    1  UNL1        0.0322
     24 C         140.1149  144.9530  161.0789 C.ar    1  UNL1        0.0927
     25 CL        139.9010  146.3442  161.5972 Cl      1  UNL1       -0.0790
     26 C         141.0919  144.7088  159.9673 C.ar    1  UNL1        0.1472
     27 O         141.8550  145.8558  159.3740 O.3     1  UNL1       -0.5045
     28 C         141.3059  143.3175  159.4489 C.ar    1  UNL1        0.0756
     29 C         140.5428  142.1704  160.0422 C.ar    1  UNL1        0.1551
     30 H         141.7214  146.7248  159.6978 H       1  UNL1        0.2922
     31 O         139.9710  141.6723  164.0322 O.2     1  UNL1       -0.2525
     32 C         139.0053  140.8965  163.1864 C.2     1  UNL1        0.3045
     33 N         138.8026  141.2677  161.7473 N.am    1  UNL1       -0.2658
     34 N         138.2422  139.7494  163.7797 N.am    1  UNL1       -0.2903
     35 H         138.1688  140.7585  161.1921 H       1  UNL1        0.1565
     36 H         137.6083  139.2403  163.2245 H       1  UNL1        0.1509
     37 C         138.4449  139.3782  165.2188 C.3     1  UNL1        0.0732
     38 C         138.1876  138.4516  166.3700 C.3     1  UNL1        0.0213
     39 C         139.0530  139.6619  166.5603 C.3     1  UNL1        0.0213
@<TRIPOS>BOND
     1    31    32    2
     2    32    33   am
     3    33    22    1
     4    22    23   ar
     5    23    24   ar
     6    24    25    1
     7    24    26   ar
     8    26    27    1
     9    26    28   ar
    10    28    29   ar
    11    29    21    1
    12    21     1    1
    13     1     2    1
    14     2     3    1
    15     2     5    1
    16     5     6    1
    17     6     7    1
    18     7     8    1
    19     8     9    1
    20     9    10    1
    21    10    11    1
    22     9    12    1
    23    12    13    1
    24    13    14   ar
    25    14    15   ar
    26    15    16    1
    27    15    17   ar
    28    17    18   ar
    29    18    19   ar
    30    19    20    1
    31    32    34   am
    32    34    37    1
    33    37    38    1
    34    38    39    1
    35    29    22   ar
    36    11     6    1
    37    19    13   ar
    38    39    37    1
    39    20     9    1
    40    33    35    1
    41    27    30    1
    42     3     4    1
    43    34    36    1
@<TRIPOS>MOLECULE
*****
 39 43 0 0 0
SMALL
GASTEIGER

@<TRIPOS>ATOM
      1 C         139.9713  143.7817  159.9588 C.3     1  UNL1        0.2358
      2 C         140.7926  144.8113  160.6768 C.3     1  UNL1        0.1700
      3 O         142.0396  145.3518  160.0421 O.3     1  UNL1       -0.3793
      4 H         142.1692  144.9337  159.1765 H       1  UNL1        0.2106
      5 C         140.3668  145.3004  162.0294 C.3     1  UNL1        0.1056
      6 N         140.5221  144.4149  163.2302 N.3     1  UNL1       -0.2703
      7 C         139.4398  144.3610  164.2673 C.3     1  UNL1        0.0758
      8 C         139.5952  143.4755  165.4680 C.3     1  UNL1        0.0577
      9 C         140.8328  142.6440  165.6316 C.3     1  UNL1        0.1399
     10 C         141.9151  142.6979  164.5945 C.3     1  UNL1        0.0577
     11 C         141.7598  143.5833  163.3938 C.3     1  UNL1        0.0758
     12 C         142.0077  141.7603  165.9294 C.3     1  UNL1        0.0695
     13 C         141.7416  141.0569  167.2273 C.ar    1  UNL1        0.0161
     14 C         142.5458  140.0656  168.0151 C.ar    1  UNL1        0.0102
     15 C         142.0105  139.5232  169.3071 C.ar    1  UNL1        0.0576
     16 CL        142.8147  138.5319  170.0949 Cl      1  UNL1       -0.0823
     17 C         140.6712  139.9722  169.8115 C.ar    1  UNL1        0.0145
     18 C         139.8669  140.9635  169.0237 C.ar    1  UNL1        0.0374
     19 C         140.4021  141.5059  167.7317 C.ar    1  UNL1        0.1343
     20 O         139.8405  142.4867  166.7455 O.3     1  UNL1       -0.4825
     21 O         140.6085  142.5069  159.4909 O.3     1  UNL1       -0.4714
     22 C         142.7815  141.5892  160.5799 C.ar    1  UNL1        0.0870
     23 C         143.4581  140.6833  161.5654 C.ar    1  UNL1        0.0322
     24 C         142.6384  139.7891  162.4478 C.ar    1  UNL1        0.0927
     25 CL        143.3150  138.8832  163.4333 Cl      1  UNL1       -0.0790
     26 C         141.1420  139.8009  162.3445 C.ar    1  UNL1        0.1472
     27 O         140.3223  138.9067  163.2268 O.3     1  UNL1       -0.5045
     28 C         140.4653  140.7068  161.3588 C.ar    1  UNL1        0.0756
     29 C         141.2851  141.6010  160.4765 C.ar    1  UNL1        0.1551
     30 H         140.7450  138.3408  163.8424 H       1  UNL1        0.2922
     31 O         144.4182  140.4127  158.3580 O.2     1  UNL1       -0.2525
     32 C         144.4196  141.8952  158.5866 C.2     1  UNL1        0.3045
     33 N         143.6013  142.4834  159.6976 N.am    1  UNL1       -0.2658
     34 N         145.2394  142.7893  157.7043 N.am    1  UNL1       -0.2903
     35 H         143.6022  143.4564  159.8476 H       1  UNL1        0.1565
     36 H         145.2403  143.7623  157.8544 H       1  UNL1        0.1509
     37 C         146.0577  142.2011  156.5934 C.3     1  UNL1        0.0732
     38 C         147.3808  142.0190  155.9106 C.3     1  UNL1        0.0213
     39 C         146.1522  141.3643  155.3522 C.3     1  UNL1        0.0213
@<TRIPOS>BOND
     1    31    32    2
     2    32    33   am
     3    33    22    1
     4    22    23   ar
     5    23    24   ar
     6    24    25    1
     7    24    26   ar
     8    26    27    1
     9    26    28   ar
    10    28    29   ar
    11    29    21    1
    12    21     1    1
    13     1     2    1
    14     2     3    1
    15     2     5    1
    16     5     6    1
    17     6     7    1
    18     7     8    1
    19     8     9    1
    20     9    10    1
    21    10    11    1
    22     9    12    1
    23    12    13    1
    24    13    14   ar
    25    14    15   ar
    26    15    16    1
    27    15    17   ar
    28    17    18   ar
    29    18    19   ar
    30    19    20    1
    31    32    34   am
    32    34    37    1
    33    37    38    1
    34    38    39    1
    35    29    22   ar
    36    11     6    1
    37    19    13   ar
    38    39    37    1
    39    20     9    1
    40    33    35    1
    41    27    30    1
    42     3     4    1
    43    34    36    1
