@<TRIPOS>MOLECULE
*****
 32 36 0 0 0
SMALL
GASTEIGER

@<TRIPOS>ATOM
      1 C         139.5433  139.6945  167.1448 C.ar    1  UNL1        0.0389
      2 C         140.7950  140.0014  166.3773 C.ar    1  UNL1        0.0029
      3 C         140.9087  139.6000  164.9365 C.ar    1  UNL1       -0.0028
      4 C         139.7708  138.8917  164.2632 C.ar    1  UNL1       -0.0061
      5 C         138.5191  138.5848  165.0307 C.ar    1  UNL1       -0.0028
      6 C         138.4054  138.9862  166.4716 C.ar    1  UNL1        0.0029
      7 O         138.3110  139.5580  169.4280 O.2     1  UNL1       -0.2866
      8 C         139.4296  140.0959  168.5856 C.2     1  UNL1        0.1956
      9 C         140.4343  141.0352  169.1841 C.ar    1  UNL1        0.0413
     10 C         141.7818  140.5255  169.6016 C.ar    1  UNL1        0.0056
     11 C         142.7866  141.4648  170.2001 C.ar    1  UNL1        0.0321
     12 C         142.4438  142.9138  170.3811 C.ar    1  UNL1        0.1674
     13 F         143.4486  143.8531  170.9795 F       1  UNL1       -0.2018
     14 C         141.0963  143.4236  169.9636 C.ar    1  UNL1        0.1675
     15 F         140.7535  144.8726  170.1445 F       1  UNL1       -0.2018
     16 C         140.0915  142.4843  169.3651 C.ar    1  UNL1        0.0351
     17 C         139.8845  138.4903  162.8224 C.3     1  UNL1        0.0991
     18 N         139.6959  139.5134  161.7417 N.3     1  UNL1       -0.2688
     19 C         140.7000  140.6140  161.5673 C.3     1  UNL1        0.0751
     20 C         140.5114  141.6369  160.4866 C.3     1  UNL1        0.0489
     21 C         139.3186  141.5593  159.5803 C.3     1  UNL1        0.1157
     22 C         138.3145  140.4587  159.7547 C.3     1  UNL1        0.0489
     23 C         138.5032  139.4357  160.8354 C.3     1  UNL1        0.0751
     24 O         138.1816  141.6102  158.6032 O.3     1  UNL1       -0.3496
     25 C         138.3942  142.7934  157.7059 C.3     1  UNL1        0.1687
     26 C         139.6626  143.4737  158.1285 C.ar    1  UNL1        0.0108
     27 C         140.3711  144.6891  157.6081 C.ar    1  UNL1        0.0476
     28 C         141.6509  145.1418  158.2461 C.ar    1  UNL1        0.2221
     29 F         142.3594  146.3572  157.7258 F       1  UNL1       -0.1832
     30 N         142.2223  144.3791  159.4046 N.ar    1  UNL1       -0.2167
     31 C         141.5137  143.1637  159.9249 C.ar    1  UNL1        0.0990
     32 C         140.2339  142.7110  159.2869 C.ar    1  UNL1        0.0198
@<TRIPOS>BOND
     1     7     8    2
     2     8     1    1
     3     1     2   ar
     4     2     3   ar
     5     3     4   ar
     6     4    17    1
     7    17    18    1
     8    18    19    1
     9    19    20    1
    10    20    21    1
    11    21    22    1
    12    22    23    1
    13    21    24    1
    14    24    25    1
    15    25    26    1
    16    26    27   ar
    17    27    28   ar
    18    28    29    1
    19    28    30   ar
    20    30    31   ar
    21    31    32   ar
    22     4     5   ar
    23     5     6   ar
    24     8     9    1
    25     9    10   ar
    26    10    11   ar
    27    11    12   ar
    28    12    13    1
    29    12    14   ar
    30    14    15    1
    31    14    16   ar
    32     6     1   ar
    33    16     9   ar
    34    23    18    1
    35    32    26   ar
    36    32    21    1
@<TRIPOS>MOLECULE
*****
 32 36 0 0 0
SMALL
GASTEIGER

@<TRIPOS>ATOM
      1 C         138.5320  138.9766  165.5046 C.ar    1  UNL1        0.0389
      2 C         138.0771  140.1133  164.6381 C.ar    1  UNL1        0.0029
      3 C         138.1216  139.9823  163.1446 C.ar    1  UNL1       -0.0028
      4 C         138.6211  138.7145  162.5174 C.ar    1  UNL1       -0.0061
      5 C         139.0761  137.5778  163.3839 C.ar    1  UNL1       -0.0028
      6 C         139.0315  137.7088  164.8776 C.ar    1  UNL1        0.0029
      7 O         137.3921  138.4414  167.7772 O.2     1  UNL1       -0.2866
      8 C         138.4874  139.1075  166.9982 C.2     1  UNL1        0.1956
      9 C         139.5380  139.9046  167.7129 C.ar    1  UNL1        0.0413
     10 C         139.3254  140.3175  169.1392 C.ar    1  UNL1        0.0056
     11 C         140.3760  141.1146  169.8538 C.ar    1  UNL1        0.0321
     12 C         141.6393  141.4988  169.1423 C.ar    1  UNL1        0.1674
     13 F         142.6900  142.2959  169.8569 F       1  UNL1       -0.2018
     14 C         141.8520  141.0860  167.7159 C.ar    1  UNL1        0.1675
     15 F         143.1153  141.4702  167.0043 F       1  UNL1       -0.2018
     16 C         140.8014  140.2889  167.0012 C.ar    1  UNL1        0.0351
     17 C         138.6657  138.5835  161.0238 C.3     1  UNL1        0.0991
     18 N         139.0252  139.7687  160.1774 N.3     1  UNL1       -0.2688
     19 C         138.0305  140.3218  159.2003 C.3     1  UNL1        0.0751
     20 C         138.3900  141.5068  158.3539 C.3     1  UNL1        0.0489
     21 C         139.7441  142.1387  158.4846 C.3     1  UNL1        0.1157
     22 C         140.7388  141.5856  159.4617 C.3     1  UNL1        0.0489
     23 C         140.3793  140.4006  160.3081 C.3     1  UNL1        0.0751
     24 O         141.0525  142.8721  158.5045 O.3     1  UNL1       -0.3496
     25 C         140.9753  143.9852  157.5019 C.3     1  UNL1        0.1687
     26 C         139.6192  143.9397  156.8623 C.ar    1  UNL1        0.0108
     27 C         138.9790  144.7899  155.8053 C.ar    1  UNL1        0.0476
     28 C         137.5779  144.4991  155.3558 C.ar    1  UNL1        0.2221
     29 F         136.9376  145.3493  154.2988 F       1  UNL1       -0.1832
     30 N         136.8169  143.3579  155.9631 N.ar    1  UNL1       -0.2167
     31 C         137.4572  142.5077  157.0200 C.ar    1  UNL1        0.0990
     32 C         138.8583  142.7986  157.4696 C.ar    1  UNL1        0.0198
@<TRIPOS>BOND
     1     7     8    2
     2     8     1    1
     3     1     2   ar
     4     2     3   ar
     5     3     4   ar
     6     4    17    1
     7    17    18    1
     8    18    19    1
     9    19    20    1
    10    20    21    1
    11    21    22    1
    12    22    23    1
    13    21    24    1
    14    24    25    1
    15    25    26    1
    16    26    27   ar
    17    27    28   ar
    18    28    29    1
    19    28    30   ar
    20    30    31   ar
    21    31    32   ar
    22     4     5   ar
    23     5     6   ar
    24     8     9    1
    25     9    10   ar
    26    10    11   ar
    27    11    12   ar
    28    12    13    1
    29    12    14   ar
    30    14    15    1
    31    14    16   ar
    32     6     1   ar
    33    16     9   ar
    34    23    18    1
    35    32    26   ar
    36    32    21    1
@<TRIPOS>MOLECULE
*****
 32 36 0 0 0
SMALL
GASTEIGER

@<TRIPOS>ATOM
      1 C         142.3139  136.9565  157.1865 C.ar    1  UNL1        0.0389
      2 C         140.9550  137.2041  156.6015 C.ar    1  UNL1        0.0029
      3 C         139.9712  138.0706  157.3304 C.ar    1  UNL1       -0.0028
      4 C         140.3462  138.6895  158.6443 C.ar    1  UNL1       -0.0061
      5 C         141.7051  138.4420  159.2293 C.ar    1  UNL1       -0.0028
      6 C         142.6889  137.5754  158.5004 C.ar    1  UNL1        0.0029
      7 O         144.4349  136.7155  155.7056 O.2     1  UNL1       -0.2866
      8 C         143.2977  136.0900  156.4577 C.2     1  UNL1        0.1956
      9 C         143.1443  134.5981  156.4809 C.ar    1  UNL1        0.0413
     10 C         142.1039  133.9377  155.6258 C.ar    1  UNL1        0.0056
     11 C         141.9505  132.4457  155.6490 C.ar    1  UNL1        0.0321
     12 C         142.8377  131.6141  156.5273 C.ar    1  UNL1        0.1674
     13 F         142.6843  130.1222  156.5505 F       1  UNL1       -0.2018
     14 C         143.8782  132.2745  157.3824 C.ar    1  UNL1        0.1675
     15 F         144.7654  131.4430  158.2607 F       1  UNL1       -0.2018
     16 C         144.0315  133.7665  157.3592 C.ar    1  UNL1        0.0351
     17 C         139.3624  139.5560  159.3732 C.3     1  UNL1        0.0991
     18 N         139.2891  139.5115  160.8708 N.3     1  UNL1       -0.2688
     19 C         139.8516  140.6401  161.6830 C.3     1  UNL1        0.0751
     20 C         139.7783  140.5956  163.1806 C.3     1  UNL1        0.0489
     21 C         139.1426  139.4224  163.8658 C.3     1  UNL1        0.1157
     22 C         138.5802  138.2938  163.0535 C.3     1  UNL1        0.0489
     23 C         138.6535  138.3383  161.5560 C.3     1  UNL1        0.0751
     24 O         138.5399  138.3211  164.6867 O.3     1  UNL1       -0.3496
     25 C         138.6840  138.6894  166.1337 C.3     1  UNL1        0.1687
     26 C         139.3758  140.0184  166.2070 C.ar    1  UNL1        0.0108
     27 C         139.7842  140.8746  167.3690 C.ar    1  UNL1        0.0476
     28 C         140.4760  142.1837  167.1294 C.ar    1  UNL1        0.2221
     29 F         140.8844  143.0399  168.2913 F       1  UNL1       -0.1832
     30 N         140.7594  142.6368  165.7278 N.ar    1  UNL1       -0.2167
     31 C         140.3510  141.7806  164.5658 C.ar    1  UNL1        0.0990
     32 C         139.6592  140.4714  164.8055 C.ar    1  UNL1        0.0198
@<TRIPOS>BOND
     1     7     8    2
     2     8     1    1
     3     1     2   ar
     4     2     3   ar
     5     3     4   ar
     6     4    17    1
     7    17    18    1
     8    18    19    1
     9    19    20    1
    10    20    21    1
    11    21    22    1
    12    22    23    1
    13    21    24    1
    14    24    25    1
    15    25    26    1
    16    26    27   ar
    17    27    28   ar
    18    28    29    1
    19    28    30   ar
    20    30    31   ar
    21    31    32   ar
    22     4     5   ar
    23     5     6   ar
    24     8     9    1
    25     9    10   ar
    26    10    11   ar
    27    11    12   ar
    28    12    13    1
    29    12    14   ar
    30    14    15    1
    31    14    16   ar
    32     6     1   ar
    33    16     9   ar
    34    23    18    1
    35    32    26   ar
    36    32    21    1
@<TRIPOS>MOLECULE
*****
 32 36 0 0 0
SMALL
GASTEIGER

@<TRIPOS>ATOM
      1 C         138.8007  139.4120  165.8701 C.ar    1  UNL1        0.0389
      2 C         138.2169  140.5259  165.0525 C.ar    1  UNL1        0.0029
      3 C         137.9351  140.3176  163.5940 C.ar    1  UNL1       -0.0028
      4 C         138.2371  138.9955  162.9531 C.ar    1  UNL1       -0.0061
      5 C         138.8209  137.8816  163.7707 C.ar    1  UNL1       -0.0028
      6 C         139.1027  138.0899  165.2292 C.ar    1  UNL1        0.0029
      7 O         138.1310  139.0894  168.3596 O.2     1  UNL1       -0.2866
      8 C         139.0825  139.6202  167.3286 C.2     1  UNL1        0.1956
      9 C         140.3158  140.3592  167.7561 C.ar    1  UNL1        0.0413
     10 C         141.6718  139.8072  167.4300 C.ar    1  UNL1        0.0056
     11 C         142.9051  140.5462  167.8576 C.ar    1  UNL1        0.0321
     12 C         142.7824  141.8373  168.6112 C.ar    1  UNL1        0.1674
     13 F         144.0157  142.5763  169.0387 F       1  UNL1       -0.2018
     14 C         141.4263  142.3894  168.9373 C.ar    1  UNL1        0.1675
     15 F         141.3036  143.6805  169.6909 F       1  UNL1       -0.2018
     16 C         140.1930  141.6504  168.5098 C.ar    1  UNL1        0.0351
     17 C         137.9553  138.7873  161.4946 C.3     1  UNL1        0.0991
     18 N         138.8754  139.3687  160.4624 N.3     1  UNL1       -0.2688
     19 C         139.9112  138.5032  159.8083 C.3     1  UNL1        0.0751
     20 C         140.8313  139.0846  158.7761 C.3     1  UNL1        0.0489
     21 C         140.7156  140.5316  158.3982 C.3     1  UNL1        0.1157
     22 C         139.6798  141.3971  159.0523 C.3     1  UNL1        0.0489
     23 C         138.7597  140.8157  160.0845 C.3     1  UNL1        0.0751
     24 O         140.7186  141.9535  157.9205 O.3     1  UNL1       -0.3496
     25 C         141.7991  142.0940  156.8896 C.3     1  UNL1        0.1687
     26 C         142.4640  140.7588  156.7301 C.ar    1  UNL1        0.0108
     27 C         143.5926  140.2975  155.8564 C.ar    1  UNL1        0.0476
     28 C         144.0515  138.8707  155.9150 C.ar    1  UNL1        0.2221
     29 F         145.1802  138.4094  155.0413 F       1  UNL1       -0.1832
     30 N         143.3819  137.9051  156.8473 N.ar    1  UNL1       -0.2167
     31 C         142.2533  138.3664  157.7211 C.ar    1  UNL1        0.0990
     32 C         141.7943  139.7932  157.6624 C.ar    1  UNL1        0.0198
@<TRIPOS>BOND
     1     7     8    2
     2     8     1    1
     3     1     2   ar
     4     2     3   ar
     5     3     4   ar
     6     4    17    1
     7    17    18    1
     8    18    19    1
     9    19    20    1
    10    20    21    1
    11    21    22    1
    12    22    23    1
    13    21    24    1
    14    24    25    1
    15    25    26    1
    16    26    27   ar
    17    27    28   ar
    18    28    29    1
    19    28    30   ar
    20    30    31   ar
    21    31    32   ar
    22     4     5   ar
    23     5     6   ar
    24     8     9    1
    25     9    10   ar
    26    10    11   ar
    27    11    12   ar
    28    12    13    1
    29    12    14   ar
    30    14    15    1
    31    14    16   ar
    32     6     1   ar
    33    16     9   ar
    34    23    18    1
    35    32    26   ar
    36    32    21    1
@<TRIPOS>MOLECULE
*****
 32 36 0 0 0
SMALL
GASTEIGER

@<TRIPOS>ATOM
      1 C         139.9193  138.4942  161.5046 C.ar    1  UNL1        0.0389
      2 C         139.2009  138.6719  160.1999 C.ar    1  UNL1        0.0029
      3 C         139.9561  138.5694  158.9079 C.ar    1  UNL1       -0.0028
      4 C         141.4297  138.2892  158.9207 C.ar    1  UNL1       -0.0061
      5 C         142.1480  138.1115  160.2254 C.ar    1  UNL1       -0.0028
      6 C         141.3928  138.2140  161.5174 C.ar    1  UNL1        0.0029
      7 O         138.7976  137.3536  163.5517 O.2     1  UNL1       -0.2866
      8 C         139.1642  138.5967  162.7966 C.2     1  UNL1        0.1956
      9 C         138.7756  139.9424  163.3334 C.ar    1  UNL1        0.0413
     10 C         137.7046  140.7412  162.6516 C.ar    1  UNL1        0.0056
     11 C         137.3160  142.0868  163.1885 C.ar    1  UNL1        0.0321
     12 C         137.9984  142.6337  164.4072 C.ar    1  UNL1        0.1674
     13 F         137.6099  143.9794  164.9440 F       1  UNL1       -0.2018
     14 C         139.0695  141.8349  165.0891 C.ar    1  UNL1        0.1675
     15 F         139.7519  142.3818  166.3077 F       1  UNL1       -0.2018
     16 C         139.4580  140.4893  164.5522 C.ar    1  UNL1        0.0351
     17 C         142.1848  138.1866  157.6287 C.3     1  UNL1        0.0991
     18 N         142.1645  136.9061  156.8477 N.3     1  UNL1       -0.2688
     19 C         143.1842  135.8417  157.1258 C.3     1  UNL1        0.0751
     20 C         143.1639  134.5613  156.3448 C.3     1  UNL1        0.0489
     21 C         142.1239  134.3452  155.2857 C.3     1  UNL1        0.1157
     22 C         141.1043  135.4096  155.0075 C.3     1  UNL1        0.0489
     23 C         141.1246  136.6900  155.7885 C.3     1  UNL1        0.0751
     24 O         141.1500  133.9888  154.2019 O.3     1  UNL1       -0.3496
     25 C         141.4981  132.6196  153.6977 C.3     1  UNL1        0.1687
     26 C         142.6873  132.1298  154.4698 C.ar    1  UNL1        0.0108
     27 C         143.4679  130.8505  154.4061 C.ar    1  UNL1        0.0476
     28 C         144.6352  130.6377  155.3236 C.ar    1  UNL1        0.2221
     29 F         145.4158  129.3584  155.2599 F       1  UNL1       -0.1832
     30 N         145.0220  131.7042  156.3051 N.ar    1  UNL1       -0.2167
     31 C         144.2414  132.9834  156.3688 C.ar    1  UNL1        0.0990
     32 C         143.0740  133.1963  155.4512 C.ar    1  UNL1        0.0198
@<TRIPOS>BOND
     1     7     8    2
     2     8     1    1
     3     1     2   ar
     4     2     3   ar
     5     3     4   ar
     6     4    17    1
     7    17    18    1
     8    18    19    1
     9    19    20    1
    10    20    21    1
    11    21    22    1
    12    22    23    1
    13    21    24    1
    14    24    25    1
    15    25    26    1
    16    26    27   ar
    17    27    28   ar
    18    28    29    1
    19    28    30   ar
    20    30    31   ar
    21    31    32   ar
    22     4     5   ar
    23     5     6   ar
    24     8     9    1
    25     9    10   ar
    26    10    11   ar
    27    11    12   ar
    28    12    13    1
    29    12    14   ar
    30    14    15    1
    31    14    16   ar
    32     6     1   ar
    33    16     9   ar
    34    23    18    1
    35    32    26   ar
    36    32    21    1
@<TRIPOS>MOLECULE
*****
 32 36 0 0 0
SMALL
GASTEIGER

@<TRIPOS>ATOM
      1 C         139.0314  139.7287  159.8181 C.ar    1  UNL1        0.0389
      2 C         140.2995  139.0327  160.2148 C.ar    1  UNL1        0.0029
      3 C         140.3655  138.2724  161.5061 C.ar    1  UNL1       -0.0028
      4 C         139.1632  138.2081  162.4008 C.ar    1  UNL1       -0.0061
      5 C         137.8950  138.9041  162.0042 C.ar    1  UNL1       -0.0028
      6 C         137.8292  139.6645  160.7128 C.ar    1  UNL1        0.0029
      7 O         138.3334  139.8628  157.3191 O.2     1  UNL1       -0.2866
      8 C         138.9655  140.4890  158.5268 C.2     1  UNL1        0.1956
      9 C         139.5316  141.8756  158.4431 C.ar    1  UNL1        0.0413
     10 C         139.5115  142.7680  159.6485 C.ar    1  UNL1        0.0056
     11 C         140.0776  144.1545  159.5648 C.ar    1  UNL1        0.0321
     12 C         140.6639  144.6486  158.2756 C.ar    1  UNL1        0.1674
     13 F         141.2300  146.0352  158.1919 F       1  UNL1       -0.2018
     14 C         140.6841  143.7562  157.0701 C.ar    1  UNL1        0.1675
     15 F         141.2704  144.2503  155.7809 F       1  UNL1       -0.2018
     16 C         140.1179  142.3697  157.1538 C.ar    1  UNL1        0.0351
     17 C         139.2291  137.4478  163.6921 C.3     1  UNL1        0.0991
     18 N         139.3263  138.1871  164.9937 N.3     1  UNL1       -0.2688
     19 C         140.5470  139.0016  165.3043 C.3     1  UNL1        0.0751
     20 C         140.6441  139.7408  166.6058 C.3     1  UNL1        0.0489
     21 C         139.5206  139.6657  167.5968 C.3     1  UNL1        0.1157
     22 C         138.2999  138.8512  167.2862 C.3     1  UNL1        0.0489
     23 C         138.2028  138.1119  165.9847 C.3     1  UNL1        0.0751
     24 O         138.4827  139.6847  168.6796 O.3     1  UNL1       -0.3496
     25 C         138.9934  140.5465  169.7961 C.3     1  UNL1        0.1687
     26 C         140.3469  141.0602  169.4033 C.ar    1  UNL1        0.0108
     27 C         141.3248  141.9533  170.1076 C.ar    1  UNL1        0.0476
     28 C         142.6284  142.3020  169.4528 C.ar    1  UNL1        0.2221
     29 F         143.6062  143.1951  170.1572 F       1  UNL1       -0.1832
     30 N         142.9543  141.7576  168.0936 N.ar    1  UNL1       -0.2167
     31 C         141.9764  140.8645  167.3892 C.ar    1  UNL1        0.0990
     32 C         140.6727  140.5158  168.0440 C.ar    1  UNL1        0.0198
@<TRIPOS>BOND
     1     7     8    2
     2     8     1    1
     3     1     2   ar
     4     2     3   ar
     5     3     4   ar
     6     4    17    1
     7    17    18    1
     8    18    19    1
     9    19    20    1
    10    20    21    1
    11    21    22    1
    12    22    23    1
    13    21    24    1
    14    24    25    1
    15    25    26    1
    16    26    27   ar
    17    27    28   ar
    18    28    29    1
    19    28    30   ar
    20    30    31   ar
    21    31    32   ar
    22     4     5   ar
    23     5     6   ar
    24     8     9    1
    25     9    10   ar
    26    10    11   ar
    27    11    12   ar
    28    12    13    1
    29    12    14   ar
    30    14    15    1
    31    14    16   ar
    32     6     1   ar
    33    16     9   ar
    34    23    18    1
    35    32    26   ar
    36    32    21    1
@<TRIPOS>MOLECULE
*****
 32 36 0 0 0
SMALL
GASTEIGER

@<TRIPOS>ATOM
      1 C         143.6063  141.6103  160.1340 C.ar    1  UNL1        0.0389
      2 C         142.4454  140.6683  160.0110 C.ar    1  UNL1        0.0029
      3 C         142.1760  139.6648  161.0928 C.ar    1  UNL1       -0.0028
      4 C         143.0675  139.6032  162.2976 C.ar    1  UNL1       -0.0061
      5 C         144.2284  140.5451  162.4206 C.ar    1  UNL1       -0.0028
      6 C         144.4978  141.5487  161.3387 C.ar    1  UNL1        0.0029
      7 O         145.1839  142.5928  158.3185 O.2     1  UNL1       -0.2866
      8 C         143.8757  142.6138  159.0522 C.2     1  UNL1        0.1956
      9 C         142.8369  143.6384  158.7040 C.ar    1  UNL1        0.0413
     10 C         142.6312  144.0420  157.2741 C.ar    1  UNL1        0.0056
     11 C         141.5925  145.0666  156.9260 C.ar    1  UNL1        0.0321
     12 C         140.7594  145.6876  158.0078 C.ar    1  UNL1        0.1674
     13 F         139.7207  146.7122  157.6596 F       1  UNL1       -0.2018
     14 C         140.9651  145.2841  159.4378 C.ar    1  UNL1        0.1675
     15 F         140.1321  145.9051  160.5196 F       1  UNL1       -0.2018
     16 C         142.0039  144.2595  159.7859 C.ar    1  UNL1        0.0351
     17 C         142.7981  138.5996  163.3794 C.3     1  UNL1        0.0991
     18 N         142.6781  139.0483  164.8057 N.3     1  UNL1       -0.2688
     19 C         141.9257  140.3031  165.1365 C.3     1  UNL1        0.0751
     20 C         141.8058  140.7517  166.5627 C.3     1  UNL1        0.0489
     21 C         142.4382  139.9456  167.6583 C.3     1  UNL1        0.1157
     22 C         143.1905  138.6908  167.3275 C.3     1  UNL1        0.0489
     23 C         143.3105  138.2422  165.9013 C.3     1  UNL1        0.0751
     24 O         143.0144  139.2466  168.8538 O.3     1  UNL1       -0.3496
     25 C         142.6532  140.0411  170.0740 C.3     1  UNL1        0.1687
     26 C         141.8537  141.2310  169.6324 C.ar    1  UNL1        0.0108
     27 C         141.2296  142.3606  170.3968 C.ar    1  UNL1        0.0476
     28 C         140.4726  143.4312  169.6684 C.ar    1  UNL1        0.2221
     29 F         139.8485  144.5608  170.4329 F       1  UNL1       -0.1832
     30 N         140.3396  143.3722  168.1754 N.ar    1  UNL1       -0.2167
     31 C         140.9638  142.2426  167.4110 C.ar    1  UNL1        0.0990
     32 C         141.7208  141.1720  168.1395 C.ar    1  UNL1        0.0198
@<TRIPOS>BOND
     1     7     8    2
     2     8     1    1
     3     1     2   ar
     4     2     3   ar
     5     3     4   ar
     6     4    17    1
     7    17    18    1
     8    18    19    1
     9    19    20    1
    10    20    21    1
    11    21    22    1
    12    22    23    1
    13    21    24    1
    14    24    25    1
    15    25    26    1
    16    26    27   ar
    17    27    28   ar
    18    28    29    1
    19    28    30   ar
    20    30    31   ar
    21    31    32   ar
    22     4     5   ar
    23     5     6   ar
    24     8     9    1
    25     9    10   ar
    26    10    11   ar
    27    11    12   ar
    28    12    13    1
    29    12    14   ar
    30    14    15    1
    31    14    16   ar
    32     6     1   ar
    33    16     9   ar
    34    23    18    1
    35    32    26   ar
    36    32    21    1
@<TRIPOS>MOLECULE
*****
 32 36 0 0 0
SMALL
GASTEIGER

@<TRIPOS>ATOM
      1 C         142.3959  134.9204  155.0892 C.ar    1  UNL1        0.0389
      2 C         143.7886  135.4773  155.1092 C.ar    1  UNL1        0.0029
      3 C         144.0559  136.8057  155.7525 C.ar    1  UNL1       -0.0028
      4 C         142.9306  137.5773  156.3758 C.ar    1  UNL1       -0.0061
      5 C         141.5379  137.0204  156.3557 C.ar    1  UNL1       -0.0028
      6 C         141.2706  135.6919  155.7124 C.ar    1  UNL1        0.0029
      7 O         141.0761  133.4712  153.3839 O.2     1  UNL1       -0.2866
      8 C         142.1286  133.5920  154.4459 C.2     1  UNL1        0.1956
      9 C         142.9137  132.3844  154.8646 C.ar    1  UNL1        0.0413
     10 C         143.3982  131.4099  153.8323 C.ar    1  UNL1        0.0056
     11 C         144.1833  130.2023  154.2510 C.ar    1  UNL1        0.0321
     12 C         144.4838  129.9691  155.7019 C.ar    1  UNL1        0.1674
     13 F         145.2689  128.7615  156.1206 F       1  UNL1       -0.2018
     14 C         143.9993  130.9436  156.7343 C.ar    1  UNL1        0.1675
     15 F         144.2998  130.7105  158.1852 F       1  UNL1       -0.2018
     16 C         143.2142  132.1512  156.3156 C.ar    1  UNL1        0.0351
     17 C         143.1979  138.9057  157.0190 C.3     1  UNL1        0.0991
     18 N         143.2778  139.0130  158.5131 N.3     1  UNL1       -0.2688
     19 C         143.7839  140.2740  159.1485 C.3     1  UNL1        0.0751
     20 C         143.8637  140.3813  160.6425 C.3     1  UNL1        0.0489
     21 C         143.4375  139.2276  161.5011 C.3     1  UNL1        0.1157
     22 C         142.9314  137.9666  160.8657 C.3     1  UNL1        0.0489
     23 C         142.8515  137.8593  159.3718 C.3     1  UNL1        0.0751
     24 O         143.0489  138.1627  162.4836 O.3     1  UNL1       -0.3496
     25 C         143.2912  138.6956  163.8647 C.3     1  UNL1        0.1687
     26 C         143.8296  140.0898  163.7358 C.ar    1  UNL1        0.0108
     27 C         144.2491  141.1024  164.7598 C.ar    1  UNL1        0.0476
     28 C         144.7590  142.4437  164.3231 C.ar    1  UNL1        0.2221
     29 F         145.1786  143.4563  165.3471 F       1  UNL1       -0.1832
     30 N         144.8494  142.7725  162.8623 N.ar    1  UNL1       -0.2167
     31 C         144.4299  141.7599  161.8383 C.ar    1  UNL1        0.0990
     32 C         143.9200  140.4185  162.2751 C.ar    1  UNL1        0.0198
@<TRIPOS>BOND
     1     7     8    2
     2     8     1    1
     3     1     2   ar
     4     2     3   ar
     5     3     4   ar
     6     4    17    1
     7    17    18    1
     8    18    19    1
     9    19    20    1
    10    20    21    1
    11    21    22    1
    12    22    23    1
    13    21    24    1
    14    24    25    1
    15    25    26    1
    16    26    27   ar
    17    27    28   ar
    18    28    29    1
    19    28    30   ar
    20    30    31   ar
    21    31    32   ar
    22     4     5   ar
    23     5     6   ar
    24     8     9    1
    25     9    10   ar
    26    10    11   ar
    27    11    12   ar
    28    12    13    1
    29    12    14   ar
    30    14    15    1
    31    14    16   ar
    32     6     1   ar
    33    16     9   ar
    34    23    18    1
    35    32    26   ar
    36    32    21    1
@<TRIPOS>MOLECULE
*****
 32 36 0 0 0
SMALL
GASTEIGER

@<TRIPOS>ATOM
      1 C         141.2771  139.7542  160.4669 C.ar    1  UNL1        0.0389
      2 C         140.1902  139.2951  159.5407 C.ar    1  UNL1        0.0029
      3 C         140.5413  138.6913  158.2133 C.ar    1  UNL1       -0.0028
      4 C         141.9794  138.5467  157.8120 C.ar    1  UNL1       -0.0061
      5 C         143.0663  139.0058  158.7382 C.ar    1  UNL1       -0.0028
      6 C         142.7151  139.6095  160.0657 C.ar    1  UNL1        0.0029
      7 O         141.1970  141.8105  162.0529 O.2     1  UNL1       -0.2866
      8 C         140.9259  140.3579  161.7943 C.2     1  UNL1        0.1956
      9 C         140.3037  139.5092  162.8632 C.ar    1  UNL1        0.0413
     10 C         140.7300  138.0808  163.0297 C.ar    1  UNL1        0.0056
     11 C         140.1078  137.2321  164.0986 C.ar    1  UNL1        0.0321
     12 C         139.0593  137.8118  165.0011 C.ar    1  UNL1        0.1674
     13 F         138.4371  136.9631  166.0700 F       1  UNL1       -0.2018
     14 C         138.6329  139.2404  164.8346 C.ar    1  UNL1        0.1675
     15 F         137.5844  139.8201  165.7371 F       1  UNL1       -0.2018
     16 C         139.2551  140.0891  163.7657 C.ar    1  UNL1        0.0351
     17 C         142.3306  137.9429  156.4845 C.3     1  UNL1        0.0991
     18 N         142.2759  136.4554  156.2991 N.3     1  UNL1       -0.2688
     19 C         143.2444  135.5725  157.0290 C.3     1  UNL1        0.0751
     20 C         143.1897  134.0851  156.8435 C.3     1  UNL1        0.0489
     21 C         142.1666  133.4804  155.9283 C.3     1  UNL1        0.1157
     22 C         141.1982  134.3633  155.1984 C.3     1  UNL1        0.0489
     23 C         141.2529  135.8507  155.3838 C.3     1  UNL1        0.0751
     24 O         141.2042  132.7361  155.0509 O.3     1  UNL1       -0.3496
     25 C         141.5076  131.2717  155.1680 C.3     1  UNL1        0.1687
     26 C         142.6574  131.1110  156.1179 C.ar    1  UNL1        0.0108
     27 C         143.3862  129.8981  156.6156 C.ar    1  UNL1        0.0476
     28 C         144.5222  130.0503  157.5832 C.ar    1  UNL1        0.2221
     29 F         145.2509  128.8374  158.0810 F       1  UNL1       -0.1832
     30 N         144.9295  131.4153  158.0531 N.ar    1  UNL1       -0.2167
     31 C         144.2008  132.6282  157.5553 C.ar    1  UNL1        0.0990
     32 C         143.0647  132.4761  156.5877 C.ar    1  UNL1        0.0198
@<TRIPOS>BOND
     1     7     8    2
     2     8     1    1
     3     1     2   ar
     4     2     3   ar
     5     3     4   ar
     6     4    17    1
     7    17    18    1
     8    18    19    1
     9    19    20    1
    10    20    21    1
    11    21    22    1
    12    22    23    1
    13    21    24    1
    14    24    25    1
    15    25    26    1
    16    26    27   ar
    17    27    28   ar
    18    28    29    1
    19    28    30   ar
    20    30    31   ar
    21    31    32   ar
    22     4     5   ar
    23     5     6   ar
    24     8     9    1
    25     9    10   ar
    26    10    11   ar
    27    11    12   ar
    28    12    13    1
    29    12    14   ar
    30    14    15    1
    31    14    16   ar
    32     6     1   ar
    33    16     9   ar
    34    23    18    1
    35    32    26   ar
    36    32    21    1
