@<TRIPOS>MOLECULE
*****
 39 44 0 0 0
SMALL
GASTEIGER

@<TRIPOS>ATOM
      1 C         142.6732  139.7870  169.1831 C.3     1  UNL1        0.0294
      2 C         141.4761  139.5444  170.0540 C.3     1  UNL1        0.0666
      3 S         140.1974  140.2842  169.7942 S.3     1  UNL1       -0.0756
      4 C         139.4685  141.7445  166.2726 C.ar    1  UNL1        0.1669
      5 N         140.1221  142.9166  166.9429 N.ar    1  UNL1       -0.1282
      6 N         140.4747  142.5121  168.3436 N.ar    1  UNL1       -0.1221
      7 C         140.0390  141.0902  168.5391 C.ar    1  UNL1        0.1932
      8 N         139.4172  140.6158  167.2592 N.ar    1  UNL1       -0.2884
      9 C         138.8446  139.2520  167.0096 C.3     1  UNL1        0.1340
     10 C         139.5764  146.5094  161.3194 C.3     1  UNL1        0.0521
     11 C         139.4214  145.3090  162.2054 C.ar    1  UNL1        0.0593
     12 C         139.9337  145.3458  163.6148 C.ar    1  UNL1        0.0147
     13 C         139.7786  144.1454  164.5007 C.ar    1  UNL1        0.0028
     14 C         139.1113  142.9081  163.9774 C.ar    1  UNL1        0.0206
     15 C         138.9563  141.7077  164.8634 C.ar    1  UNL1        0.0374
     16 C         138.2889  140.4705  164.3399 C.ar    1  UNL1        0.0031
     17 C         137.7767  140.4337  162.9306 C.ar    1  UNL1        0.0016
     18 C         137.9317  141.6340  162.0447 C.ar    1  UNL1        0.0191
     19 C         138.5990  142.8713  162.5680 C.ar    1  UNL1        0.0810
     20 N         138.7540  144.0717  161.6820 N.ar    1  UNL1       -0.2497
     21 C         142.8169  139.0515  167.8838 C.3     1  UNL1        0.0730
     22 N         142.7118  139.7952  166.5854 N.3     1  UNL1       -0.2720
     23 C         143.2348  141.2011  166.5966 C.3     1  UNL1        0.0768
     24 C         143.2728  142.1937  165.4725 C.3     1  UNL1        0.0434
     25 C         142.7973  142.0256  164.0600 C.ar    1  UNL1       -0.0230
     26 C         143.0219  143.2709  163.2543 C.ar    1  UNL1        0.0178
     27 C         142.6155  143.3139  161.8110 C.ar    1  UNL1        0.1184
     28 N         142.7106  144.3926  160.7732 N.ar    1  UNL1       -0.2075
     29 C         142.1384  143.8572  159.4942 C.ar    1  UNL1        0.2679
     30 O         141.6897  142.4475  159.7415 O.2     1  UNL1       -0.4337
     31 C         141.9845  142.1117  161.1734 C.ar    1  UNL1        0.1643
     32 C         141.7599  140.8664  161.9790 C.ar    1  UNL1        0.0346
     33 C         142.1664  140.8234  163.4223 C.ar    1  UNL1       -0.0216
     34 C         141.8550  139.4924  164.0398 C.3     1  UNL1        0.0434
     35 C         142.0978  139.0348  165.4476 C.3     1  UNL1        0.0768
     36 C         142.0334  144.6010  158.1958 C.3     1  UNL1        0.3303
     37 C         141.9284  145.3448  156.8975 C.3     1  UNL1        0.0822
     38 F         142.9181  143.5823  157.5406 F       1  UNL1       -0.1945
     39 F         141.1486  145.6198  158.8510 F       1  UNL1       -0.1945
@<TRIPOS>BOND
     1    10    11    1
     2    11    12   ar
     3    12    13   ar
     4    13    14   ar
     5    14    15   ar
     6    15     4    1
     7     4     5   ar
     8     5     6   ar
     9     6     7   ar
    10     7     3    1
    11     3     2    1
    12     2     1    1
    13     1    21    1
    14    21    22    1
    15    22    23    1
    16    23    24    1
    17    24    25    1
    18    25    26   ar
    19    26    27   ar
    20    27    28   ar
    21    28    29   ar
    22    29    36    1
    23    36    37    1
    24    36    38    1
    25    36    39    1
    26    29    30   ar
    27    30    31   ar
    28    31    32   ar
    29    32    33   ar
    30    33    34    1
    31    34    35    1
    32     7     8   ar
    33     8     9    1
    34    15    16   ar
    35    16    17   ar
    36    17    18   ar
    37    18    19   ar
    38    19    20   ar
    39    20    11   ar
    40    19    14   ar
    41     8     4   ar
    42    35    22    1
    43    33    25   ar
    44    31    27   ar
@<TRIPOS>MOLECULE
*****
 39 44 0 0 0
SMALL
GASTEIGER

@<TRIPOS>ATOM
      1 C         140.3220  145.2374  158.0491 C.3     1  UNL1        0.0294
      2 C         140.0251  144.0409  157.1944 C.3     1  UNL1        0.0666
      3 S         138.9356  143.0888  157.5895 S.3     1  UNL1       -0.0756
      4 C         139.4789  140.9730  160.7979 C.ar    1  UNL1        0.1669
      5 N         138.4727  141.9761  161.2791 N.ar    1  UNL1       -0.1282
      6 N         138.1468  142.8908  160.1358 N.ar    1  UNL1       -0.1221
      7 C         138.9514  142.4529  158.9480 C.ar    1  UNL1        0.1932
      8 N         139.7746  141.2677  159.3573 N.ar    1  UNL1       -0.2884
      9 C         140.7266  140.5101  158.4798 C.3     1  UNL1        0.1340
     10 C         138.3886  139.0809  167.3158 C.3     1  UNL1        0.0521
     11 C         138.8122  139.2780  165.8903 C.ar    1  UNL1        0.0593
     12 C         138.2080  140.3820  165.0741 C.ar    1  UNL1        0.0147
     13 C         138.6316  140.5790  163.6487 C.ar    1  UNL1        0.0028
     14 C         139.6594  139.6720  163.0395 C.ar    1  UNL1        0.0206
     15 C         140.0830  139.8691  161.6141 C.ar    1  UNL1        0.0374
     16 C         141.1108  138.9621  161.0050 C.ar    1  UNL1        0.0031
     17 C         141.7149  137.8581  161.8212 C.ar    1  UNL1        0.0016
     18 C         141.2914  137.6611  163.2465 C.ar    1  UNL1        0.0191
     19 C         140.2636  138.5680  163.8557 C.ar    1  UNL1        0.0810
     20 N         139.8400  138.3710  165.2812 N.ar    1  UNL1       -0.2497
     21 C         141.5858  145.2882  158.8554 C.3     1  UNL1        0.0730
     22 N         141.6774  144.5431  160.1540 N.3     1  UNL1       -0.2720
     23 C         140.8126  145.0620  161.2645 C.3     1  UNL1        0.0768
     24 C         140.6785  144.5435  162.6657 C.3     1  UNL1        0.0434
     25 C         141.3760  143.3783  163.3024 C.ar    1  UNL1       -0.0230
     26 C         140.9534  143.2003  164.7306 C.ar    1  UNL1        0.0178
     27 C         141.5347  142.0877  165.5518 C.ar    1  UNL1        0.1184
     28 N         141.3116  141.6679  166.9744 N.ar    1  UNL1       -0.2075
     29 C         142.1776  140.4738  167.2466 C.ar    1  UNL1        0.2679
     30 O         142.9359  140.1556  165.9922 O.2     1  UNL1       -0.4337
     31 C         142.5386  141.1530  164.9447 C.ar    1  UNL1        0.1643
     32 C         142.9612  141.3309  163.5165 C.ar    1  UNL1        0.0346
     33 C         142.3799  142.4435  162.6954 C.ar    1  UNL1       -0.0216
     34 C         142.9343  142.4433  161.3016 C.3     1  UNL1        0.0434
     35 C         142.6216  143.3777  160.1706 C.3     1  UNL1        0.0768
     36 C         142.2691  139.7287  168.5453 C.3     1  UNL1        0.3303
     37 C         142.3607  138.9837  169.8439 C.3     1  UNL1        0.0822
     38 F         141.2710  140.6681  169.1546 F       1  UNL1       -0.1945
     39 F         143.2673  138.7893  167.9360 F       1  UNL1       -0.1945
@<TRIPOS>BOND
     1    10    11    1
     2    11    12   ar
     3    12    13   ar
     4    13    14   ar
     5    14    15   ar
     6    15     4    1
     7     4     5   ar
     8     5     6   ar
     9     6     7   ar
    10     7     3    1
    11     3     2    1
    12     2     1    1
    13     1    21    1
    14    21    22    1
    15    22    23    1
    16    23    24    1
    17    24    25    1
    18    25    26   ar
    19    26    27   ar
    20    27    28   ar
    21    28    29   ar
    22    29    36    1
    23    36    37    1
    24    36    38    1
    25    36    39    1
    26    29    30   ar
    27    30    31   ar
    28    31    32   ar
    29    32    33   ar
    30    33    34    1
    31    34    35    1
    32     7     8   ar
    33     8     9    1
    34    15    16   ar
    35    16    17   ar
    36    17    18   ar
    37    18    19   ar
    38    19    20   ar
    39    20    11   ar
    40    19    14   ar
    41     8     4   ar
    42    35    22    1
    43    33    25   ar
    44    31    27   ar
@<TRIPOS>MOLECULE
*****
 39 44 0 0 0
SMALL
GASTEIGER

@<TRIPOS>ATOM
      1 C         140.7568  145.3440  158.8779 C.3     1  UNL1        0.0294
      2 C         139.9539  144.4520  157.9779 C.3     1  UNL1        0.0666
      3 S         140.2683  142.9875  157.8990 S.3     1  UNL1       -0.0756
      4 C         140.5592  141.1633  161.3126 C.ar    1  UNL1        0.1669
      5 N         141.9497  140.9962  160.7752 N.ar    1  UNL1       -0.1282
      6 N         142.0099  141.6592  159.4311 N.ar    1  UNL1       -0.1221
      7 C         140.6567  142.2361  159.1377 C.ar    1  UNL1        0.1932
      8 N         139.7602  141.9295  160.3006 N.ar    1  UNL1       -0.2884
      9 C         138.3177  142.3206  160.4289 C.3     1  UNL1        0.1340
     10 C         143.8388  138.0127  166.4672 C.3     1  UNL1        0.0521
     11 C         142.8932  138.6730  165.5080 C.ar    1  UNL1        0.0593
     12 C         143.3962  139.1827  164.1900 C.ar    1  UNL1        0.0147
     13 C         142.4505  139.8429  163.2309 C.ar    1  UNL1        0.0028
     14 C         141.0019  139.9933  163.5898 C.ar    1  UNL1        0.0206
     15 C         140.0562  140.6536  162.6306 C.ar    1  UNL1        0.0374
     16 C         138.6076  140.8040  162.9895 C.ar    1  UNL1        0.0031
     17 C         138.1046  140.2943  164.3076 C.ar    1  UNL1        0.0016
     18 C         139.0502  139.6341  165.2666 C.ar    1  UNL1        0.0191
     19 C         140.4988  139.4836  164.9078 C.ar    1  UNL1        0.0810
     20 N         141.4445  138.8234  165.8669 N.ar    1  UNL1       -0.2497
     21 C         140.1705  145.8283  160.1708 C.3     1  UNL1        0.0730
     22 N         140.5108  145.1330  161.4557 N.3     1  UNL1       -0.2720
     23 C         139.3797  144.9722  162.4279 C.3     1  UNL1        0.0768
     24 C         139.3957  144.3291  163.7830 C.3     1  UNL1        0.0434
     25 C         140.5463  143.6882  164.5005 C.ar    1  UNL1       -0.0230
     26 C         140.1314  143.1642  165.8434 C.ar    1  UNL1        0.0178
     27 C         141.1355  142.4839  166.7260 C.ar    1  UNL1        0.1184
     28 N         141.0206  141.8710  168.0902 N.ar    1  UNL1       -0.2075
     29 C         142.3686  141.3358  168.4731 C.ar    1  UNL1        0.2679
     30 O         143.3166  141.6181  167.3455 O.2     1  UNL1       -0.4337
     31 C         142.5546  142.3276  166.2658 C.ar    1  UNL1        0.1643
     32 C         142.9695  142.8516  164.9229 C.ar    1  UNL1        0.0346
     33 C         141.9654  143.5318  164.0403 C.ar    1  UNL1       -0.0216
     34 C         142.5842  143.9779  162.7487 C.3     1  UNL1        0.0434
     35 C         141.9368  144.6906  161.5985 C.3     1  UNL1        0.0768
     36 C         142.7087  140.6406  169.7580 C.3     1  UNL1        0.3303
     37 C         143.0488  139.9453  171.0428 C.3     1  UNL1        0.0822
     38 F         143.0591  141.9601  170.3793 F       1  UNL1       -0.1945
     39 F         142.3584  139.3210  169.1367 F       1  UNL1       -0.1945
@<TRIPOS>BOND
     1    10    11    1
     2    11    12   ar
     3    12    13   ar
     4    13    14   ar
     5    14    15   ar
     6    15     4    1
     7     4     5   ar
     8     5     6   ar
     9     6     7   ar
    10     7     3    1
    11     3     2    1
    12     2     1    1
    13     1    21    1
    14    21    22    1
    15    22    23    1
    16    23    24    1
    17    24    25    1
    18    25    26   ar
    19    26    27   ar
    20    27    28   ar
    21    28    29   ar
    22    29    36    1
    23    36    37    1
    24    36    38    1
    25    36    39    1
    26    29    30   ar
    27    30    31   ar
    28    31    32   ar
    29    32    33   ar
    30    33    34    1
    31    34    35    1
    32     7     8   ar
    33     8     9    1
    34    15    16   ar
    35    16    17   ar
    36    17    18   ar
    37    18    19   ar
    38    19    20   ar
    39    20    11   ar
    40    19    14   ar
    41     8     4   ar
    42    35    22    1
    43    33    25   ar
    44    31    27   ar
@<TRIPOS>MOLECULE
*****
 39 44 0 0 0
SMALL
GASTEIGER

@<TRIPOS>ATOM
      1 C         142.6993  142.6315  157.8532 C.3     1  UNL1        0.0294
      2 C         142.8961  141.7186  156.6793 C.3     1  UNL1        0.0666
      3 S         142.3054  140.3399  156.6941 S.3     1  UNL1       -0.0756
      4 C         141.4941  138.6869  160.1110 C.ar    1  UNL1        0.1669
      5 N         142.8130  138.0500  159.7867 N.ar    1  UNL1       -0.1282
      6 N         143.2773  138.5917  158.4673 N.ar    1  UNL1       -0.1221
      7 C         142.2455  139.5634  157.9761 C.ar    1  UNL1        0.1932
      8 N         141.1435  139.6222  158.9919 N.ar    1  UNL1       -0.2884
      9 C         139.9076  140.4679  158.9042 C.3     1  UNL1        0.1340
     10 C         143.1935  138.7923  166.7707 C.3     1  UNL1        0.0521
     11 C         142.5627  138.7025  165.4127 C.ar    1  UNL1        0.0593
     12 C         143.3863  138.9563  164.1849 C.ar    1  UNL1        0.0147
     13 C         142.7555  138.8665  162.8270 C.ar    1  UNL1        0.0028
     14 C         141.3013  138.5229  162.6967 C.ar    1  UNL1        0.0206
     15 C         140.6706  138.4331  161.3386 C.ar    1  UNL1        0.0374
     16 C         139.2163  138.0894  161.2085 C.ar    1  UNL1        0.0031
     17 C         138.3927  137.8355  162.4362 C.ar    1  UNL1        0.0016
     18 C         139.0234  137.9253  163.7941 C.ar    1  UNL1        0.0191
     19 C         140.4777  138.2690  163.9244 C.ar    1  UNL1        0.0810
     20 N         141.1084  138.3588  165.2824 N.ar    1  UNL1       -0.2497
     21 C         143.8101  142.8335  158.8407 C.3     1  UNL1        0.0730
     22 N         143.5335  142.7341  160.3116 N.3     1  UNL1       -0.2720
     23 C         142.0900  142.5915  160.6941 C.3     1  UNL1        0.0768
     24 C         141.4934  142.4700  162.0650 C.3     1  UNL1        0.0434
     25 C         142.1928  142.4611  163.3918 C.ar    1  UNL1       -0.0230
     26 C         141.2187  142.3199  164.5238 C.ar    1  UNL1        0.0178
     27 C         141.7134  142.2890  165.9395 C.ar    1  UNL1        0.1184
     28 N         140.9964  142.1603  167.2507 N.ar    1  UNL1       -0.2075
     29 C         142.0220  142.1912  168.3449 C.ar    1  UNL1        0.2679
     30 O         143.3729  142.3389  167.7099 O.2     1  UNL1       -0.4337
     31 C         143.1822  142.3993  166.2234 C.ar    1  UNL1        0.1643
     32 C         144.1563  142.5406  165.0914 C.ar    1  UNL1        0.0346
     33 C         143.6616  142.5715  163.6757 C.ar    1  UNL1       -0.0216
     34 C         144.7937  142.7180  162.7027 C.3     1  UNL1        0.0434
     35 C         144.7366  142.7904  161.2055 C.3     1  UNL1        0.0768
     36 C         141.7452  142.0918  169.8158 C.3     1  UNL1        0.3303
     37 C         141.4684  141.9923  171.2866 C.3     1  UNL1        0.0822
     38 F         141.7343  143.5884  169.9150 F       1  UNL1       -0.1945
     39 F         141.7561  140.5951  169.7167 F       1  UNL1       -0.1945
@<TRIPOS>BOND
     1    10    11    1
     2    11    12   ar
     3    12    13   ar
     4    13    14   ar
     5    14    15   ar
     6    15     4    1
     7     4     5   ar
     8     5     6   ar
     9     6     7   ar
    10     7     3    1
    11     3     2    1
    12     2     1    1
    13     1    21    1
    14    21    22    1
    15    22    23    1
    16    23    24    1
    17    24    25    1
    18    25    26   ar
    19    26    27   ar
    20    27    28   ar
    21    28    29   ar
    22    29    36    1
    23    36    37    1
    24    36    38    1
    25    36    39    1
    26    29    30   ar
    27    30    31   ar
    28    31    32   ar
    29    32    33   ar
    30    33    34    1
    31    34    35    1
    32     7     8   ar
    33     8     9    1
    34    15    16   ar
    35    16    17   ar
    36    17    18   ar
    37    18    19   ar
    38    19    20   ar
    39    20    11   ar
    40    19    14   ar
    41     8     4   ar
    42    35    22    1
    43    33    25   ar
    44    31    27   ar
@<TRIPOS>MOLECULE
*****
 39 44 0 0 0
SMALL
GASTEIGER

@<TRIPOS>ATOM
      1 C         140.9284  145.0635  158.3703 C.3     1  UNL1        0.0294
      2 C         139.8520  144.5364  157.4682 C.3     1  UNL1        0.0666
      3 S         139.3195  143.1484  157.6675 S.3     1  UNL1       -0.0756
      4 C         139.9389  141.3259  161.0380 C.ar    1  UNL1        0.1669
      5 N         138.5745  141.9053  161.2682 N.ar    1  UNL1       -0.1282
      6 N         138.1765  142.6585  160.0337 N.ar    1  UNL1       -0.1221
      7 C         139.2948  142.5447  159.0404 C.ar    1  UNL1        0.1932
      8 N         140.3839  141.7211  159.6612 N.ar    1  UNL1       -0.2884
      9 C         141.6892  141.3566  159.0179 C.3     1  UNL1        0.1340
     10 C         138.3935  139.1985  167.3891 C.3     1  UNL1        0.0521
     11 C         138.9753  139.5232  166.0452 C.ar    1  UNL1        0.0593
     12 C         138.1934  140.3522  165.0698 C.ar    1  UNL1        0.0147
     13 C         138.7752  140.6767  163.7259 C.ar    1  UNL1        0.0028
     14 C         140.1390  140.1724  163.3573 C.ar    1  UNL1        0.0206
     15 C         140.7208  140.4970  162.0133 C.ar    1  UNL1        0.0374
     16 C         142.0845  139.9926  161.6449 C.ar    1  UNL1        0.0031
     17 C         142.8664  139.1636  162.6203 C.ar    1  UNL1        0.0016
     18 C         142.2846  138.8390  163.9641 C.ar    1  UNL1        0.0191
     19 C         140.9209  139.3434  164.3327 C.ar    1  UNL1        0.0810
     20 N         140.3391  139.0187  165.6767 N.ar    1  UNL1       -0.2497
     21 C         140.5618  145.7840  159.6338 C.3     1  UNL1        0.0730
     22 N         140.7749  145.1226  160.9632 N.3     1  UNL1       -0.2720
     23 C         142.0869  144.4161  161.1356 C.3     1  UNL1        0.0768
     24 C         142.5960  143.6677  162.3318 C.3     1  UNL1        0.0434
     25 C         141.9188  143.4409  163.6508 C.ar    1  UNL1       -0.0230
     26 C         142.7802  142.6353  164.5777 C.ar    1  UNL1        0.0178
     27 C         142.2881  142.2953  165.9533 C.ar    1  UNL1        0.1184
     28 N         142.9090  141.5224  167.0789 N.ar    1  UNL1       -0.2075
     29 C         141.9394  141.5103  168.2233 C.ar    1  UNL1        0.2679
     30 O         140.7191  142.2757  167.8049 O.2     1  UNL1       -0.4337
     31 C         140.9346  142.7608  166.4021 C.ar    1  UNL1        0.1643
     32 C         140.0732  143.5664  165.4751 C.ar    1  UNL1        0.0346
     33 C         140.5653  143.9064  164.0996 C.ar    1  UNL1       -0.0216
     34 C         139.5547  144.7138  163.3400 C.3     1  UNL1        0.0434
     35 C         139.6481  145.2550  161.9442 C.3     1  UNL1        0.0768
     36 C         142.1526  140.8489  169.5526 C.3     1  UNL1        0.3303
     37 C         142.3660  140.1875  170.8818 C.3     1  UNL1        0.0822
     38 F         140.7235  140.3934  169.5553 F       1  UNL1       -0.1945
     39 F         143.5818  141.3043  169.5499 F       1  UNL1       -0.1945
@<TRIPOS>BOND
     1    10    11    1
     2    11    12   ar
     3    12    13   ar
     4    13    14   ar
     5    14    15   ar
     6    15     4    1
     7     4     5   ar
     8     5     6   ar
     9     6     7   ar
    10     7     3    1
    11     3     2    1
    12     2     1    1
    13     1    21    1
    14    21    22    1
    15    22    23    1
    16    23    24    1
    17    24    25    1
    18    25    26   ar
    19    26    27   ar
    20    27    28   ar
    21    28    29   ar
    22    29    36    1
    23    36    37    1
    24    36    38    1
    25    36    39    1
    26    29    30   ar
    27    30    31   ar
    28    31    32   ar
    29    32    33   ar
    30    33    34    1
    31    34    35    1
    32     7     8   ar
    33     8     9    1
    34    15    16   ar
    35    16    17   ar
    36    17    18   ar
    37    18    19   ar
    38    19    20   ar
    39    20    11   ar
    40    19    14   ar
    41     8     4   ar
    42    35    22    1
    43    33    25   ar
    44    31    27   ar
@<TRIPOS>MOLECULE
*****
 39 44 0 0 0
SMALL
GASTEIGER

@<TRIPOS>ATOM
      1 C         141.3179  145.0486  157.9495 C.3     1  UNL1        0.0294
      2 C         141.8335  143.7081  157.5165 C.3     1  UNL1        0.0666
      3 S         143.2269  143.2877  157.8791 S.3     1  UNL1       -0.0756
      4 C         143.7050  140.6568  160.6925 C.ar    1  UNL1        0.1669
      5 N         143.8572  139.8032  159.4684 N.ar    1  UNL1       -0.1282
      6 N         143.6967  140.6849  158.2656 N.ar    1  UNL1       -0.1221
      7 C         143.4452  142.0834  158.7462 C.ar    1  UNL1        0.1932
      8 N         143.4504  142.0660  160.2460 N.ar    1  UNL1       -0.2884
      9 C         143.2381  143.2500  161.1422 C.3     1  UNL1        0.1340
     10 C         139.2395  137.1208  164.5405 C.3     1  UNL1        0.0521
     11 C         140.3777  137.8867  163.9337 C.ar    1  UNL1        0.0593
     12 C         140.2906  138.3593  162.5127 C.ar    1  UNL1        0.0147
     13 C         141.4287  139.1251  161.9060 C.ar    1  UNL1        0.0028
     14 C         142.6540  139.4184  162.7201 C.ar    1  UNL1        0.0206
     15 C         143.7921  140.1842  162.1133 C.ar    1  UNL1        0.0374
     16 C         145.0173  140.4773  162.9275 C.ar    1  UNL1        0.0031
     17 C         145.1044  140.0047  164.3485 C.ar    1  UNL1        0.0016
     18 C         143.9663  139.2389  164.9552 C.ar    1  UNL1        0.0191
     19 C         142.7411  138.9457  164.1411 C.ar    1  UNL1        0.0810
     20 N         141.6029  138.1799  164.7479 N.ar    1  UNL1       -0.2497
     21 C         140.0777  145.1398  158.7882 C.3     1  UNL1        0.0730
     22 N         140.0628  144.5584  160.1709 N.3     1  UNL1       -0.2720
     23 C         139.6535  143.1184  160.2669 C.3     1  UNL1        0.0768
     24 C         139.5395  142.2582  161.4905 C.3     1  UNL1        0.0434
     25 C         139.8066  142.6254  162.9200 C.ar    1  UNL1       -0.0230
     26 C         139.5702  141.4627  163.8379 C.ar    1  UNL1        0.0178
     27 C         139.7809  141.6182  165.3148 C.ar    1  UNL1        0.1184
     28 N         139.6286  140.6579  166.4570 N.ar    1  UNL1       -0.2075
     29 C         139.9816  141.3825  167.7220 C.ar    1  UNL1        0.2679
     30 O         140.3520  142.7906  167.3617 O.2     1  UNL1       -0.4337
     31 C         140.2280  142.9363  165.8741 C.ar    1  UNL1        0.1643
     32 C         140.4644  144.0990  164.9562 C.ar    1  UNL1        0.0346
     33 C         140.2538  143.9435  163.4793 C.ar    1  UNL1       -0.0216
     34 C         140.5442  145.2200  162.7469 C.3     1  UNL1        0.0434
     35 C         140.4592  145.4935  161.2745 C.3     1  UNL1        0.0768
     36 C         139.9667  140.8009  169.1047 C.3     1  UNL1        0.3303
     37 C         139.9517  140.2193  170.4872 C.3     1  UNL1        0.0822
     38 F         141.1119  141.6893  169.4908 F       1  UNL1       -0.1945
     39 F         138.8214  139.9124  168.7186 F       1  UNL1       -0.1945
@<TRIPOS>BOND
     1    10    11    1
     2    11    12   ar
     3    12    13   ar
     4    13    14   ar
     5    14    15   ar
     6    15     4    1
     7     4     5   ar
     8     5     6   ar
     9     6     7   ar
    10     7     3    1
    11     3     2    1
    12     2     1    1
    13     1    21    1
    14    21    22    1
    15    22    23    1
    16    23    24    1
    17    24    25    1
    18    25    26   ar
    19    26    27   ar
    20    27    28   ar
    21    28    29   ar
    22    29    36    1
    23    36    37    1
    24    36    38    1
    25    36    39    1
    26    29    30   ar
    27    30    31   ar
    28    31    32   ar
    29    32    33   ar
    30    33    34    1
    31    34    35    1
    32     7     8   ar
    33     8     9    1
    34    15    16   ar
    35    16    17   ar
    36    17    18   ar
    37    18    19   ar
    38    19    20   ar
    39    20    11   ar
    40    19    14   ar
    41     8     4   ar
    42    35    22    1
    43    33    25   ar
    44    31    27   ar
@<TRIPOS>MOLECULE
*****
 39 44 0 0 0
SMALL
GASTEIGER

@<TRIPOS>ATOM
      1 C         143.7807  142.9506  158.0595 C.3     1  UNL1        0.0294
      2 C         142.5865  142.7282  157.1794 C.3     1  UNL1        0.0666
      3 S         141.3393  143.5346  157.3897 S.3     1  UNL1       -0.0756
      4 C         139.0704  142.6910  160.4239 C.ar    1  UNL1        0.1669
      5 N         138.3318  142.0083  159.3109 N.ar    1  UNL1       -0.1282
      6 N         139.0919  142.2413  158.0389 N.ar    1  UNL1       -0.1221
      7 C         140.3002  143.0679  158.3657 C.ar    1  UNL1        0.1932
      8 N         140.2869  143.3458  159.8396 N.ar    1  UNL1       -0.2884
      9 C         141.3104  144.1393  160.5965 C.3     1  UNL1        0.1340
     10 C         138.7849  137.6621  165.1015 C.3     1  UNL1        0.0521
     11 C         138.7546  138.9253  164.2929 C.ar    1  UNL1        0.0593
     12 C         139.1612  138.9016  162.8493 C.ar    1  UNL1        0.0147
     13 C         139.1309  140.1647  162.0408 C.ar    1  UNL1        0.0028
     14 C         138.6941  141.4515  162.6760 C.ar    1  UNL1        0.0206
     15 C         138.6638  142.7146  161.8674 C.ar    1  UNL1        0.0374
     16 C         138.2270  144.0013  162.5027 C.ar    1  UNL1        0.0031
     17 C         137.8204  144.0250  163.9464 C.ar    1  UNL1        0.0016
     18 C         137.8507  142.7619  164.7548 C.ar    1  UNL1        0.0191
     19 C         138.2875  141.4752  164.1196 C.ar    1  UNL1        0.0810
     20 N         138.3178  140.2120  164.9282 N.ar    1  UNL1       -0.2497
     21 C         144.3168  141.8258  158.8944 C.3     1  UNL1        0.0730
     22 N         144.0104  141.7687  160.3617 N.3     1  UNL1       -0.2720
     23 C         143.0300  140.7138  160.7812 C.3     1  UNL1        0.0768
     24 C         142.5219  140.4037  162.1581 C.3     1  UNL1        0.0434
     25 C         142.8687  141.0719  163.4554 C.ar    1  UNL1       -0.0230
     26 C         142.1330  140.4507  164.6056 C.ar    1  UNL1        0.0178
     27 C         142.3379  140.9729  165.9968 C.ar    1  UNL1        0.1184
     28 N         141.7558  140.5654  167.3177 N.ar    1  UNL1       -0.2075
     29 C         142.3366  141.4568  168.3751 C.ar    1  UNL1        0.2679
     30 O         143.2776  142.4153  167.7076 O.2     1  UNL1       -0.4337
     31 C         143.2784  142.1163  166.2378 C.ar    1  UNL1        0.1643
     32 C         144.0142  142.7374  165.0876 C.ar    1  UNL1        0.0346
     33 C         143.8093  142.2152  163.6964 C.ar    1  UNL1       -0.0216
     34 C         144.6353  142.9727  162.6995 C.3     1  UNL1        0.0434
     35 C         144.7248  142.7740  161.2154 C.3     1  UNL1        0.0768
     36 C         142.0301  141.3996  169.8424 C.3     1  UNL1        0.3303
     37 C         141.7235  141.3425  171.3095 C.3     1  UNL1        0.0822
     38 F         143.3054  140.6466  170.0795 F       1  UNL1       -0.1945
     39 F         140.7546  142.1527  169.6053 F       1  UNL1       -0.1945
@<TRIPOS>BOND
     1    10    11    1
     2    11    12   ar
     3    12    13   ar
     4    13    14   ar
     5    14    15   ar
     6    15     4    1
     7     4     5   ar
     8     5     6   ar
     9     6     7   ar
    10     7     3    1
    11     3     2    1
    12     2     1    1
    13     1    21    1
    14    21    22    1
    15    22    23    1
    16    23    24    1
    17    24    25    1
    18    25    26   ar
    19    26    27   ar
    20    27    28   ar
    21    28    29   ar
    22    29    36    1
    23    36    37    1
    24    36    38    1
    25    36    39    1
    26    29    30   ar
    27    30    31   ar
    28    31    32   ar
    29    32    33   ar
    30    33    34    1
    31    34    35    1
    32     7     8   ar
    33     8     9    1
    34    15    16   ar
    35    16    17   ar
    36    17    18   ar
    37    18    19   ar
    38    19    20   ar
    39    20    11   ar
    40    19    14   ar
    41     8     4   ar
    42    35    22    1
    43    33    25   ar
    44    31    27   ar
@<TRIPOS>MOLECULE
*****
 39 44 0 0 0
SMALL
GASTEIGER

@<TRIPOS>ATOM
      1 C         144.4358  140.8506  157.8426 C.3     1  UNL1        0.0294
      2 C         143.3907  140.7016  156.7769 C.3     1  UNL1        0.0666
      3 S         142.2363  139.7665  156.9842 S.3     1  UNL1       -0.0756
      4 C         140.2941  140.2430  160.3108 C.ar    1  UNL1        0.1669
      5 N         140.8146  138.8460  160.4766 N.ar    1  UNL1       -0.1282
      6 N         141.6055  138.4975  159.2506 N.ar    1  UNL1       -0.1221
      7 C         141.5738  139.6791  158.3271 C.ar    1  UNL1        0.1932
      8 N         140.7634  140.7578  158.9824 N.ar    1  UNL1       -0.2884
      9 C         140.4731  142.1136  158.4098 C.3     1  UNL1        0.1340
     10 C         138.0708  138.4887  166.5742 C.3     1  UNL1        0.0521
     11 C         138.4162  139.1148  165.2556 C.ar    1  UNL1        0.0593
     12 C         139.2580  138.3644  164.2665 C.ar    1  UNL1        0.0147
     13 C         139.6034  138.9907  162.9480 C.ar    1  UNL1        0.0028
     14 C         139.1069  140.3672  162.6184 C.ar    1  UNL1        0.0206
     15 C         139.4523  140.9934  161.2998 C.ar    1  UNL1        0.0374
     16 C         138.9558  142.3699  160.9704 C.ar    1  UNL1        0.0031
     17 C         138.1139  143.1203  161.9594 C.ar    1  UNL1        0.0016
     18 C         137.7686  142.4942  163.2779 C.ar    1  UNL1        0.0191
     19 C         138.2650  141.1176  163.6075 C.ar    1  UNL1        0.0810
     20 N         137.9196  140.4914  164.9261 N.ar    1  UNL1       -0.2497
     21 C         144.4254  142.0522  158.7404 C.3     1  UNL1        0.0730
     22 N         143.8275  141.9579  160.1128 N.3     1  UNL1       -0.2720
     23 C         143.0906  143.1756  160.5867 C.3     1  UNL1        0.0768
     24 C         142.3898  143.3945  161.8948 C.3     1  UNL1        0.0434
     25 C         142.2528  142.4500  163.0519 C.ar    1  UNL1       -0.0230
     26 C         141.4700  143.0667  164.1730 C.ar    1  UNL1        0.0178
     27 C         141.2172  142.2867  165.4291 C.ar    1  UNL1        0.1184
     28 N         140.4848  142.6287  166.6927 N.ar    1  UNL1       -0.2075
     29 C         140.5621  141.4433  167.6086 C.ar    1  UNL1        0.2679
     30 O         141.3422  140.3687  166.9110 O.2     1  UNL1       -0.4337
     31 C         141.7471  140.8899  165.5641 C.ar    1  UNL1        0.1643
     32 C         142.5299  140.2732  164.4429 C.ar    1  UNL1        0.0346
     33 C         142.7827  141.0532  163.1869 C.ar    1  UNL1       -0.0216
     34 C         143.5806  140.2560  162.1980 C.3     1  UNL1        0.0434
     35 C         144.0455  140.6587  160.8299 C.3     1  UNL1        0.0768
     36 C         139.9642  141.3491  168.9810 C.3     1  UNL1        0.3303
     37 C         139.3663  141.2550  170.3534 C.3     1  UNL1        0.0822
     38 F         139.9170  139.8549  168.8580 F       1  UNL1       -0.1945
     39 F         140.0114  142.8433  169.1041 F       1  UNL1       -0.1945
@<TRIPOS>BOND
     1    10    11    1
     2    11    12   ar
     3    12    13   ar
     4    13    14   ar
     5    14    15   ar
     6    15     4    1
     7     4     5   ar
     8     5     6   ar
     9     6     7   ar
    10     7     3    1
    11     3     2    1
    12     2     1    1
    13     1    21    1
    14    21    22    1
    15    22    23    1
    16    23    24    1
    17    24    25    1
    18    25    26   ar
    19    26    27   ar
    20    27    28   ar
    21    28    29   ar
    22    29    36    1
    23    36    37    1
    24    36    38    1
    25    36    39    1
    26    29    30   ar
    27    30    31   ar
    28    31    32   ar
    29    32    33   ar
    30    33    34    1
    31    34    35    1
    32     7     8   ar
    33     8     9    1
    34    15    16   ar
    35    16    17   ar
    36    17    18   ar
    37    18    19   ar
    38    19    20   ar
    39    20    11   ar
    40    19    14   ar
    41     8     4   ar
    42    35    22    1
    43    33    25   ar
    44    31    27   ar
@<TRIPOS>MOLECULE
*****
 39 44 0 0 0
SMALL
GASTEIGER

@<TRIPOS>ATOM
      1 C         142.5059  140.5000  157.6957 C.3     1  UNL1        0.0294
      2 C         142.3002  139.2194  156.9420 C.3     1  UNL1        0.0666
      3 S         141.0972  138.3687  157.2230 S.3     1  UNL1       -0.0756
      4 C         139.1495  139.1044  160.4988 C.ar    1  UNL1        0.1669
      5 N         138.1861  139.6139  159.4680 N.ar    1  UNL1       -0.1282
      6 N         138.7985  139.4003  158.1155 N.ar    1  UNL1       -0.1221
      7 C         140.1403  138.7588  158.3103 C.ar    1  UNL1        0.1932
      8 N         140.3572  138.5760  159.7832 N.ar    1  UNL1       -0.2884
      9 C         141.5692  137.9709  160.4275 C.3     1  UNL1        0.1340
     10 C         137.6667  144.2745  164.7791 C.3     1  UNL1        0.0521
     11 C         137.9854  142.9860  164.0804 C.ar    1  UNL1        0.0593
     12 C         138.1933  142.9699  162.5949 C.ar    1  UNL1        0.0147
     13 C         138.5120  141.6814  161.8962 C.ar    1  UNL1        0.0028
     14 C         138.6229  140.4090  162.6829 C.ar    1  UNL1        0.0206
     15 C         138.9416  139.1205  161.9841 C.ar    1  UNL1        0.0374
     16 C         139.0524  137.8483  162.7709 C.ar    1  UNL1        0.0031
     17 C         138.8445  137.8644  164.2563 C.ar    1  UNL1        0.0016
     18 C         138.5258  139.1528  164.9550 C.ar    1  UNL1        0.0191
     19 C         138.4150  140.4252  164.1684 C.ar    1  UNL1        0.0810
     20 N         138.0962  141.7137  164.8671 N.ar    1  UNL1       -0.2497
     21 C         143.6519  140.6300  158.6547 C.3     1  UNL1        0.0730
     22 N         143.3868  140.8111  160.1200 N.3     1  UNL1       -0.2720
     23 C         144.1844  139.9339  161.0389 C.3     1  UNL1        0.0768
     24 C         144.1514  139.8743  162.5374 C.3     1  UNL1        0.0434
     25 C         143.3127  140.6773  163.4869 C.ar    1  UNL1       -0.0230
     26 C         143.5896  140.3037  164.9131 C.ar    1  UNL1        0.0178
     27 C         142.8537  140.9909  166.0249 C.ar    1  UNL1        0.1184
     28 N         142.9146  140.8353  167.5155 N.ar    1  UNL1       -0.2075
     29 C         141.9394  141.8000  168.1225 C.ar    1  UNL1        0.2679
     30 O         141.2758  142.5517  167.0070 O.2     1  UNL1       -0.4337
     31 C         141.8408  142.0517  165.7107 C.ar    1  UNL1        0.1643
     32 C         141.5639  142.4253  164.2845 C.ar    1  UNL1        0.0346
     33 C         142.2998  141.7381  163.1727 C.ar    1  UNL1       -0.0216
     34 C         141.8755  142.2580  161.8312 C.3     1  UNL1        0.0434
     35 C         142.3593  141.8454  160.4726 C.3     1  UNL1        0.0768
     36 C         141.6744  141.9810  169.5878 C.3     1  UNL1        0.3303
     37 C         141.4095  142.1620  171.0530 C.3     1  UNL1        0.0822
     38 F         142.1688  140.5892  169.8492 F       1  UNL1       -0.1945
     39 F         141.1800  143.3728  169.3265 F       1  UNL1       -0.1945
@<TRIPOS>BOND
     1    10    11    1
     2    11    12   ar
     3    12    13   ar
     4    13    14   ar
     5    14    15   ar
     6    15     4    1
     7     4     5   ar
     8     5     6   ar
     9     6     7   ar
    10     7     3    1
    11     3     2    1
    12     2     1    1
    13     1    21    1
    14    21    22    1
    15    22    23    1
    16    23    24    1
    17    24    25    1
    18    25    26   ar
    19    26    27   ar
    20    27    28   ar
    21    28    29   ar
    22    29    36    1
    23    36    37    1
    24    36    38    1
    25    36    39    1
    26    29    30   ar
    27    30    31   ar
    28    31    32   ar
    29    32    33   ar
    30    33    34    1
    31    34    35    1
    32     7     8   ar
    33     8     9    1
    34    15    16   ar
    35    16    17   ar
    36    17    18   ar
    37    18    19   ar
    38    19    20   ar
    39    20    11   ar
    40    19    14   ar
    41     8     4   ar
    42    35    22    1
    43    33    25   ar
    44    31    27   ar
