@<TRIPOS>MOLECULE
*****
 36 38 0 0 0
SMALL
GASTEIGER

@<TRIPOS>ATOM
      1 C         143.2468  144.0032  163.5604 C.ar    1  UNL1       -0.0204
      2 C         142.0870  144.9534  163.6032 C.ar    1  UNL1       -0.0028
      3 C         141.2159  145.1285  162.3947 C.ar    1  UNL1        0.0199
      4 C         141.5046  144.3533  161.1434 C.ar    1  UNL1        0.1253
      5 C         142.6644  143.4030  161.1007 C.ar    1  UNL1        0.0199
      6 C         143.5355  143.2280  162.3091 C.ar    1  UNL1       -0.0028
      7 S         140.6335  144.5283  159.9349 S.O2    1  UNL1        0.0768
      8 O         141.3507  143.4002  159.2546 O.2     1  UNL1       -0.1498
      9 O         139.9162  145.6564  160.6152 O.2     1  UNL1       -0.1498
     10 N         139.7624  144.7033  158.7263 N.am    1  UNL1       -0.1693
     11 C         140.2463  145.5199  157.5650 C.2     1  UNL1        0.3194
     12 O         141.6013  146.1616  157.6121 O.2     1  UNL1       -0.2512
     13 N         139.3753  145.6950  156.3564 N.am    1  UNL1       -0.2894
     14 H         138.8731  144.2822  158.6954 H       1  UNL1        0.1781
     15 H         138.4859  145.2738  156.3254 H       1  UNL1        0.1509
     16 C         139.8592  146.5116  155.1950 C.3     1  UNL1        0.0731
     17 C         139.3987  147.9299  155.0317 C.3     1  UNL1        0.0196
     18 C         139.8827  148.7465  153.8703 C.3     1  UNL1        0.0017
     19 C         140.8271  148.1450  152.8722 C.3     1  UNL1        0.0001
     20 C         141.2875  146.7268  153.0354 C.3     1  UNL1        0.0017
     21 C         140.8036  145.9101  154.1968 C.3     1  UNL1        0.0196
     22 C         144.1180  143.8281  164.7689 C.3     1  UNL1        0.0476
     23 C         143.6655  142.9516  165.8990 C.3     1  UNL1        0.0944
     24 C         141.3503  141.7777  165.7906 C.2     1  UNL1        0.2488
     25 O         140.6870  143.0439  166.2453 O.2     1  UNL1       -0.2700
     26 N         142.8396  141.7315  165.6175 N.am    1  UNL1       -0.3004
     27 H         143.2749  140.9005  165.3190 H       1  UNL1        0.1498
     28 C         140.7614  139.7636  164.2588 C.ar    1  UNL1        0.1431
     29 C         139.9354  138.5435  163.9773 C.ar    1  UNL1        0.0379
     30 C         138.8724  138.1176  164.9461 C.ar    1  UNL1        0.0145
     31 C         138.6354  138.9116  166.1964 C.ar    1  UNL1        0.0580
     32 CL        137.5724  138.4856  167.1652 Cl      1  UNL1       -0.0822
     33 C         139.4613  140.1316  166.4779 C.ar    1  UNL1        0.0190
     34 C         140.5243  140.5576  165.5091 C.ar    1  UNL1        0.0881
     35 C         142.9646  139.2675  162.9745 C.3     1  UNL1        0.2525
     36 O         141.8244  140.1895  163.2900 O.3     1  UNL1       -0.4713
@<TRIPOS>BOND
     1    35    36    1
     2    36    28    1
     3    28    29   ar
     4    29    30   ar
     5    30    31   ar
     6    31    32    1
     7    31    33   ar
     8    33    34   ar
     9    34    24    1
    10    24    25    2
    11    24    26   am
    12    26    23    1
    13    23    22    1
    14    22     1    1
    15     1     2   ar
    16     2     3   ar
    17     3     4   ar
    18     4     7    1
    19     7     8    2
    20     7     9    2
    21     7    10    1
    22    10    11   am
    23    11    12    2
    24    11    13   am
    25    13    16    1
    26    16    17    1
    27    17    18    1
    28    18    19    1
    29    19    20    1
    30    20    21    1
    31     4     5   ar
    32     5     6   ar
    33    34    28   ar
    34     6     1   ar
    35    21    16    1
    36    26    27    1
    37    10    14    1
    38    13    15    1
@<TRIPOS>MOLECULE
*****
 36 38 0 0 0
SMALL
GASTEIGER

@<TRIPOS>ATOM
      1 C         139.0224  139.2224  160.2282 C.ar    1  UNL1       -0.0204
      2 C         139.5309  138.0446  161.0056 C.ar    1  UNL1       -0.0028
      3 C         139.3288  137.9823  162.4905 C.ar    1  UNL1        0.0199
      4 C         138.6182  139.0977  163.1982 C.ar    1  UNL1        0.1253
      5 C         138.1098  140.2755  162.4209 C.ar    1  UNL1        0.0199
      6 C         138.3119  140.3379  160.9359 C.ar    1  UNL1       -0.0028
      7 S         138.4161  139.0354  164.6833 S.O2    1  UNL1        0.0768
      8 O         139.0849  137.6933  164.7179 O.2     1  UNL1       -0.1498
      9 O         137.7472  140.3775  164.6486 O.2     1  UNL1       -0.1498
     10 N         138.2140  138.9730  166.1682 N.am    1  UNL1       -0.1693
     11 C         139.1663  139.6818  167.0851 C.2     1  UNL1        0.3194
     12 O         140.3207  140.4529  166.5170 O.2     1  UNL1       -0.2512
     13 N         138.9642  139.6195  168.5702 N.am    1  UNL1       -0.2894
     14 H         137.4563  138.4669  166.5411 H       1  UNL1        0.1781
     15 H         138.2065  139.1134  168.9431 H       1  UNL1        0.1509
     16 C         139.9165  140.3282  169.4871 C.3     1  UNL1        0.0731
     17 C         141.2160  139.6810  169.8648 C.3     1  UNL1        0.0196
     18 C         142.1683  140.3898  170.7817 C.3     1  UNL1        0.0017
     19 C         141.8212  141.7458  171.3209 C.3     1  UNL1        0.0001
     20 C         140.5218  142.3930  170.9433 C.3     1  UNL1        0.0017
     21 C         139.5694  141.6842  170.0263 C.3     1  UNL1        0.0196
     22 C         139.2246  139.2848  158.7432 C.3     1  UNL1        0.0476
     23 C         140.4317  139.9735  158.1788 C.3     1  UNL1        0.0944
     24 C         142.4885  139.9081  159.7648 C.2     1  UNL1        0.2488
     25 O         142.6294  138.4347  159.5214 O.2     1  UNL1       -0.2700
     26 N         141.3896  140.6775  159.0936 N.am    1  UNL1       -0.3004
     27 H         141.2972  141.6445  159.2533 H       1  UNL1        0.1498
     28 C         143.9664  141.9720  160.3184 C.ar    1  UNL1        0.1431
     29 C         144.9243  142.6759  161.2331 C.ar    1  UNL1        0.0379
     30 C         145.3622  142.0201  162.5090 C.ar    1  UNL1        0.0145
     31 C         144.8423  140.6603  162.8702 C.ar    1  UNL1        0.0580
     32 CL        145.2803  140.0044  164.1462 Cl      1  UNL1       -0.0822
     33 C         143.8844  139.9563  161.9555 C.ar    1  UNL1        0.0190
     34 C         143.4464  140.6121  160.6796 C.ar    1  UNL1        0.0881
     35 C         144.3888  142.5343  157.8173 C.3     1  UNL1        0.2525
     36 O         143.5284  142.6278  159.0424 O.3     1  UNL1       -0.4713
@<TRIPOS>BOND
     1    35    36    1
     2    36    28    1
     3    28    29   ar
     4    29    30   ar
     5    30    31   ar
     6    31    32    1
     7    31    33   ar
     8    33    34   ar
     9    34    24    1
    10    24    25    2
    11    24    26   am
    12    26    23    1
    13    23    22    1
    14    22     1    1
    15     1     2   ar
    16     2     3   ar
    17     3     4   ar
    18     4     7    1
    19     7     8    2
    20     7     9    2
    21     7    10    1
    22    10    11   am
    23    11    12    2
    24    11    13   am
    25    13    16    1
    26    16    17    1
    27    17    18    1
    28    18    19    1
    29    19    20    1
    30    20    21    1
    31     4     5   ar
    32     5     6   ar
    33    34    28   ar
    34     6     1   ar
    35    21    16    1
    36    26    27    1
    37    10    14    1
    38    13    15    1
@<TRIPOS>MOLECULE
*****
 36 38 0 0 0
SMALL
GASTEIGER

@<TRIPOS>ATOM
      1 C         140.2616  138.4708  159.9300 C.ar    1  UNL1       -0.0204
      2 C         139.3990  138.2746  161.1414 C.ar    1  UNL1       -0.0028
      3 C         140.0234  138.2064  162.5036 C.ar    1  UNL1        0.0199
      4 C         141.5102  138.3345  162.6543 C.ar    1  UNL1        0.1253
      5 C         142.3728  138.5307  161.4429 C.ar    1  UNL1        0.0199
      6 C         141.7484  138.5988  160.0807 C.ar    1  UNL1       -0.0028
      7 S         142.1346  138.2663  164.0165 S.O2    1  UNL1        0.0768
      8 O         141.1336  137.2259  164.4233 O.2     1  UNL1       -0.1498
      9 O         143.1357  139.3067  163.6098 O.2     1  UNL1       -0.1498
     10 N         142.7590  138.1981  165.3787 N.am    1  UNL1       -0.1693
     11 C         142.3255  139.1531  166.4510 C.2     1  UNL1        0.3194
     12 O         141.2676  140.1763  166.1612 O.2     1  UNL1       -0.2512
     13 N         142.9498  139.0850  167.8133 N.am    1  UNL1       -0.2894
     14 H         143.4533  137.5266  165.5689 H       1  UNL1        0.1781
     15 H         143.6441  138.4134  168.0035 H       1  UNL1        0.1509
     16 C         142.5163  140.0400  168.8856 C.3     1  UNL1        0.0731
     17 C         141.4844  139.6212  169.8906 C.3     1  UNL1        0.0196
     18 C         141.0509  140.5762  170.9629 C.3     1  UNL1        0.0017
     19 C         141.6492  141.9501  171.0304 C.3     1  UNL1        0.0001
     20 C         142.6810  142.3689  170.0254 C.3     1  UNL1        0.0017
     21 C         143.1146  141.4139  168.9530 C.3     1  UNL1        0.0196
     22 C         139.6372  138.5389  158.5678 C.3     1  UNL1        0.0476
     23 C         140.4771  138.3133  157.3456 C.3     1  UNL1        0.0944
     24 C         142.3290  136.5558  156.8647 C.2     1  UNL1        0.2488
     25 O         143.3810  137.5831  157.1609 O.2     1  UNL1       -0.2700
     26 N         140.8770  136.9209  156.9570 N.am    1  UNL1       -0.3004
     27 H         140.1866  136.2466  156.7626 H       1  UNL1        0.1498
     28 C         142.1456  134.5307  155.2474 C.ar    1  UNL1        0.1431
     29 C         142.5455  133.1382  154.8588 C.ar    1  UNL1        0.0379
     30 C         143.5288  132.3783  155.6989 C.ar    1  UNL1        0.0145
     31 C         144.1121  133.0108  156.9275 C.ar    1  UNL1        0.0580
     32 CL        145.0953  132.2509  157.7676 Cl      1  UNL1       -0.0822
     33 C         143.7122  134.4033  157.3161 C.ar    1  UNL1        0.0190
     34 C         142.7289  135.1632  156.4760 C.ar    1  UNL1        0.0881
     35 C         141.6396  136.0840  153.2272 C.3     1  UNL1        0.2525
     36 O         141.1623  135.2907  154.4073 O.3     1  UNL1       -0.4713
@<TRIPOS>BOND
     1    35    36    1
     2    36    28    1
     3    28    29   ar
     4    29    30   ar
     5    30    31   ar
     6    31    32    1
     7    31    33   ar
     8    33    34   ar
     9    34    24    1
    10    24    25    2
    11    24    26   am
    12    26    23    1
    13    23    22    1
    14    22     1    1
    15     1     2   ar
    16     2     3   ar
    17     3     4   ar
    18     4     7    1
    19     7     8    2
    20     7     9    2
    21     7    10    1
    22    10    11   am
    23    11    12    2
    24    11    13   am
    25    13    16    1
    26    16    17    1
    27    17    18    1
    28    18    19    1
    29    19    20    1
    30    20    21    1
    31     4     5   ar
    32     5     6   ar
    33    34    28   ar
    34     6     1   ar
    35    21    16    1
    36    26    27    1
    37    10    14    1
    38    13    15    1
@<TRIPOS>MOLECULE
*****
 36 38 0 0 0
SMALL
GASTEIGER

@<TRIPOS>ATOM
      1 C         143.2186  144.1337  163.6775 C.ar    1  UNL1       -0.0204
      2 C         141.9572  144.9427  163.7450 C.ar    1  UNL1       -0.0028
      3 C         141.0956  145.0916  162.5263 C.ar    1  UNL1        0.0199
      4 C         141.4954  144.4316  161.2400 C.ar    1  UNL1        0.1253
      5 C         142.7568  143.6227  161.1725 C.ar    1  UNL1        0.0199
      6 C         143.6184  143.4738  162.3912 C.ar    1  UNL1       -0.0028
      7 S         140.6338  144.5806  160.0211 S.O2    1  UNL1        0.0768
      8 O         139.9931  145.7961  160.6226 O.2     1  UNL1       -0.1498
      9 O         141.2745  143.3650  159.4196 O.2     1  UNL1       -0.1498
     10 N         139.7722  144.7295  158.8023 N.am    1  UNL1       -0.1693
     11 C         140.2724  145.5064  157.6207 C.2     1  UNL1        0.3194
     12 O         141.6341  146.1343  157.6579 O.2     1  UNL1       -0.2512
     13 N         139.4108  145.6554  156.4019 N.am    1  UNL1       -0.2894
     14 H         138.8785  144.3174  158.7780 H       1  UNL1        0.1781
     15 H         138.5170  145.2433  156.3775 H       1  UNL1        0.1509
     16 C         139.9110  146.4322  155.2203 C.3     1  UNL1        0.0731
     17 C         140.8047  145.7721  154.2124 C.3     1  UNL1        0.0196
     18 C         141.3048  146.5490  153.0308 C.3     1  UNL1        0.0017
     19 C         140.9114  147.9860  152.8569 C.3     1  UNL1        0.0001
     20 C         140.0178  148.6461  153.8647 C.3     1  UNL1        0.0017
     21 C         139.5175  147.8692  155.0464 C.3     1  UNL1        0.0196
     22 C         144.0802  143.9848  164.8964 C.3     1  UNL1        0.0476
     23 C         143.8719  142.8253  165.8249 C.3     1  UNL1        0.0944
     24 C         142.4201  140.7042  165.4465 C.2     1  UNL1        0.2488
     25 O         143.6307  139.9618  164.9635 O.2     1  UNL1       -0.2700
     26 N         142.5408  142.1360  165.8772 N.am    1  UNL1       -0.3004
     27 H         141.7462  142.6233  166.1942 H       1  UNL1        0.1498
     28 C         140.2472  140.1023  166.7372 C.ar    1  UNL1        0.1431
     29 C         138.9160  139.4130  166.7895 C.ar    1  UNL1        0.0379
     30 C         138.4265  138.6364  165.6032 C.ar    1  UNL1        0.0145
     31 C         139.2681  138.5490  164.3647 C.ar    1  UNL1        0.0580
     32 CL        138.7786  137.7723  163.1785 Cl      1  UNL1       -0.0822
     33 C         140.5993  139.2383  164.3125 C.ar    1  UNL1        0.0190
     34 C         141.0888  140.0149  165.4987 C.ar    1  UNL1        0.0881
     35 C         140.7680  140.2374  169.2790 C.3     1  UNL1        0.2525
     36 O         140.7367  140.8790  167.9235 O.3     1  UNL1       -0.4713
@<TRIPOS>BOND
     1    35    36    1
     2    36    28    1
     3    28    29   ar
     4    29    30   ar
     5    30    31   ar
     6    31    32    1
     7    31    33   ar
     8    33    34   ar
     9    34    24    1
    10    24    25    2
    11    24    26   am
    12    26    23    1
    13    23    22    1
    14    22     1    1
    15     1     2   ar
    16     2     3   ar
    17     3     4   ar
    18     4     7    1
    19     7     8    2
    20     7     9    2
    21     7    10    1
    22    10    11   am
    23    11    12    2
    24    11    13   am
    25    13    16    1
    26    16    17    1
    27    17    18    1
    28    18    19    1
    29    19    20    1
    30    20    21    1
    31     4     5   ar
    32     5     6   ar
    33    34    28   ar
    34     6     1   ar
    35    21    16    1
    36    26    27    1
    37    10    14    1
    38    13    15    1
@<TRIPOS>MOLECULE
*****
 36 38 0 0 0
SMALL
GASTEIGER

@<TRIPOS>ATOM
      1 C         143.1797  144.2285  163.5098 C.ar    1  UNL1       -0.0204
      2 C         141.8850  144.9824  163.5836 C.ar    1  UNL1       -0.0028
      3 C         141.0277  145.1220  162.3607 C.ar    1  UNL1        0.0199
      4 C         141.4651  144.5078  161.0640 C.ar    1  UNL1        0.1253
      5 C         142.7597  143.7539  160.9903 C.ar    1  UNL1        0.0199
      6 C         143.6170  143.6142  162.2132 C.ar    1  UNL1       -0.0028
      7 S         140.6078  144.6474  159.8411 S.O2    1  UNL1        0.0768
      8 O         141.3373  143.5048  159.1992 O.2     1  UNL1       -0.1498
      9 O         139.8782  145.7901  160.4829 O.2     1  UNL1       -0.1498
     10 N         139.7505  144.7870  158.6181 N.am    1  UNL1       -0.1693
     11 C         140.2329  145.5990  157.4528 C.2     1  UNL1        0.3194
     12 O         141.5726  146.2713  157.5104 O.2     1  UNL1       -0.2512
     13 N         139.3757  145.7386  156.2298 N.am    1  UNL1       -0.2894
     14 H         138.8713  144.3457  158.5803 H       1  UNL1        0.1781
     15 H         138.4964  145.2973  156.1920 H       1  UNL1        0.1509
     16 C         139.8581  146.5505  155.0645 C.3     1  UNL1        0.0731
     17 C         139.4338  147.9822  154.9209 C.3     1  UNL1        0.0196
     18 C         139.9162  148.7941  153.7556 C.3     1  UNL1        0.0017
     19 C         140.8229  148.1745  152.7338 C.3     1  UNL1        0.0001
     20 C         141.2471  146.7429  152.8773 C.3     1  UNL1        0.0017
     21 C         140.7647  145.9309  154.0427 C.3     1  UNL1        0.0196
     22 C         144.0370  144.0888  164.7328 C.3     1  UNL1        0.0476
     23 C         144.1316  142.7669  165.4354 C.3     1  UNL1        0.0944
     24 C         143.5176  140.5787  164.1766 C.2     1  UNL1        0.2488
     25 O         144.8755  140.5642  163.5394 O.2     1  UNL1       -0.2700
     26 N         143.1457  141.6801  165.1245 N.am    1  UNL1       -0.3004
     27 H         142.2545  141.6896  165.5427 H       1  UNL1        0.1498
     28 C         142.1284  138.5175  164.9325 C.ar    1  UNL1        0.1431
     29 C         141.1424  137.4307  164.6216 C.ar    1  UNL1        0.0379
     30 C         140.5597  137.3182  163.2440 C.ar    1  UNL1        0.0145
     31 C         140.9630  138.2925  162.1772 C.ar    1  UNL1        0.0580
     32 CL        140.3804  138.1800  160.7996 Cl      1  UNL1       -0.0822
     33 C         141.9490  139.3793  162.4881 C.ar    1  UNL1        0.0190
     34 C         142.5316  139.4918  163.8657 C.ar    1  UNL1        0.0881
     35 C         143.9839  137.9116  166.6470 C.3     1  UNL1        0.2525
     36 O         142.7110  138.6300  166.3101 O.3     1  UNL1       -0.4713
@<TRIPOS>BOND
     1    35    36    1
     2    36    28    1
     3    28    29   ar
     4    29    30   ar
     5    30    31   ar
     6    31    32    1
     7    31    33   ar
     8    33    34   ar
     9    34    24    1
    10    24    25    2
    11    24    26   am
    12    26    23    1
    13    23    22    1
    14    22     1    1
    15     1     2   ar
    16     2     3   ar
    17     3     4   ar
    18     4     7    1
    19     7     8    2
    20     7     9    2
    21     7    10    1
    22    10    11   am
    23    11    12    2
    24    11    13   am
    25    13    16    1
    26    16    17    1
    27    17    18    1
    28    18    19    1
    29    19    20    1
    30    20    21    1
    31     4     5   ar
    32     5     6   ar
    33    34    28   ar
    34     6     1   ar
    35    21    16    1
    36    26    27    1
    37    10    14    1
    38    13    15    1
@<TRIPOS>MOLECULE
*****
 36 38 0 0 0
SMALL
GASTEIGER

@<TRIPOS>ATOM
      1 C         141.9226  138.4306  159.7710 C.ar    1  UNL1       -0.0204
      2 C         143.3395  138.2520  160.2298 C.ar    1  UNL1       -0.0028
      3 C         143.6524  138.2014  161.6959 C.ar    1  UNL1        0.0199
      4 C         142.5484  138.3293  162.7032 C.ar    1  UNL1        0.1253
      5 C         141.1315  138.5079  162.2444 C.ar    1  UNL1        0.0199
      6 C         140.8186  138.5585  160.7783 C.ar    1  UNL1       -0.0028
      7 S         142.8613  138.2786  164.1694 S.O2    1  UNL1        0.0768
      8 O         141.6376  137.4427  164.4016 O.2     1  UNL1       -0.1498
      9 O         144.0849  139.1145  163.9372 O.2     1  UNL1       -0.1498
     10 N         143.1741  138.2280  165.6355 N.am    1  UNL1       -0.1693
     11 C         142.5804  139.2449  166.5646 C.2     1  UNL1        0.3194
     12 O         141.6739  140.3125  166.0276 O.2     1  UNL1       -0.2512
     13 N         142.8932  139.1943  168.0308 N.am    1  UNL1       -0.2894
     14 H         143.7691  137.5272  165.9880 H       1  UNL1        0.1781
     15 H         143.4881  138.4936  168.3833 H       1  UNL1        0.1509
     16 C         142.2995  140.2112  168.9599 C.3     1  UNL1        0.0731
     17 C         140.9491  139.9734  169.5682 C.3     1  UNL1        0.0196
     18 C         140.3553  140.9904  170.4973 C.3     1  UNL1        0.0017
     19 C         141.1120  142.2452  170.8182 C.3     1  UNL1        0.0001
     20 C         142.4623  142.4830  170.2100 C.3     1  UNL1        0.0017
     21 C         143.0561  141.4660  169.2808 C.3     1  UNL1        0.0196
     22 C         141.6098  138.4812  158.3048 C.3     1  UNL1        0.0476
     23 C         142.4208  137.6722  157.3365 C.3     1  UNL1        0.0944
     24 C         143.0069  135.3714  156.2817 C.2     1  UNL1        0.2488
     25 O         144.2511  135.9611  155.6867 O.2     1  UNL1       -0.2700
     26 N         142.0917  136.2270  157.1066 N.am    1  UNL1       -0.3004
     27 H         141.2751  135.8399  157.4971 H       1  UNL1        0.1498
     28 C         143.3279  132.8662  156.8907 C.ar    1  UNL1        0.1431
     29 C         142.9987  131.4209  156.6607 C.ar    1  UNL1        0.0379
     30 C         142.0194  131.0356  155.5919 C.ar    1  UNL1        0.0145
     31 C         141.3693  132.0955  154.7530 C.ar    1  UNL1        0.0580
     32 CL        140.3899  131.7102  153.6841 Cl      1  UNL1       -0.0822
     33 C         141.6984  133.5408  154.9829 C.ar    1  UNL1        0.0190
     34 C         142.6777  133.9261  156.0518 C.ar    1  UNL1        0.0881
     35 C         145.5461  132.4330  158.1720 C.3     1  UNL1        0.2525
     36 O         144.3072  133.2515  157.9595 O.3     1  UNL1       -0.4713
@<TRIPOS>BOND
     1    35    36    1
     2    36    28    1
     3    28    29   ar
     4    29    30   ar
     5    30    31   ar
     6    31    32    1
     7    31    33   ar
     8    33    34   ar
     9    34    24    1
    10    24    25    2
    11    24    26   am
    12    26    23    1
    13    23    22    1
    14    22     1    1
    15     1     2   ar
    16     2     3   ar
    17     3     4   ar
    18     4     7    1
    19     7     8    2
    20     7     9    2
    21     7    10    1
    22    10    11   am
    23    11    12    2
    24    11    13   am
    25    13    16    1
    26    16    17    1
    27    17    18    1
    28    18    19    1
    29    19    20    1
    30    20    21    1
    31     4     5   ar
    32     5     6   ar
    33    34    28   ar
    34     6     1   ar
    35    21    16    1
    36    26    27    1
    37    10    14    1
    38    13    15    1
@<TRIPOS>MOLECULE
*****
 36 38 0 0 0
SMALL
GASTEIGER

@<TRIPOS>ATOM
      1 C         143.3385  144.2476  163.4765 C.ar    1  UNL1       -0.0204
      2 C         143.6479  143.4994  162.2138 C.ar    1  UNL1       -0.0028
      3 C         142.7656  143.6600  161.0114 C.ar    1  UNL1        0.0199
      4 C         141.5738  144.5688  161.0718 C.ar    1  UNL1        0.1253
      5 C         141.2644  145.3170  162.3345 C.ar    1  UNL1        0.0199
      6 C         142.1468  145.1564  163.5369 C.ar    1  UNL1       -0.0028
      7 S         140.6914  144.7295  159.8695 S.O2    1  UNL1        0.0768
      8 O         141.4276  143.6187  159.1808 O.2     1  UNL1       -0.1498
      9 O         139.9553  145.8403  160.5581 O.2     1  UNL1       -0.1498
     10 N         139.8091  144.8901  158.6671 N.am    1  UNL1       -0.1693
     11 C         140.2937  145.6681  157.4798 C.2     1  UNL1        0.3194
     12 O         141.6606  146.2855  157.4948 O.2     1  UNL1       -0.2512
     13 N         139.4113  145.8288  156.2774 N.am    1  UNL1       -0.2894
     14 H         138.9119  144.4849  158.6573 H       1  UNL1        0.1781
     15 H         138.5142  145.4235  156.2675 H       1  UNL1        0.1509
     16 C         139.8959  146.6068  155.0901 C.3     1  UNL1        0.0731
     17 C         139.4668  148.0317  154.9011 C.3     1  UNL1        0.0196
     18 C         139.9514  148.8097  153.7138 C.3     1  UNL1        0.0017
     19 C         140.8652  148.1629  152.7154 C.3     1  UNL1        0.0001
     20 C         141.2943  146.7382  152.9043 C.3     1  UNL1        0.0017
     21 C         140.8097  145.9600  154.0917 C.3     1  UNL1        0.0196
     22 C         144.2209  144.0869  164.6788 C.3     1  UNL1        0.0476
     23 C         143.8966  143.0511  165.7141 C.3     1  UNL1        0.0944
     24 C         142.1652  141.2525  164.9948 C.2     1  UNL1        0.2488
     25 O         143.1994  140.6062  164.1215 O.2     1  UNL1       -0.2700
     26 N         142.5138  142.4750  165.7911 N.am    1  UNL1       -0.3004
     27 H         141.8350  142.8992  166.3643 H       1  UNL1        0.1498
     28 C         139.5877  141.5778  164.9711 C.ar    1  UNL1        0.1431
     29 C         138.2049  141.0016  165.0482 C.ar    1  UNL1        0.0379
     30 C         138.0168  139.5241  165.2259 C.ar    1  UNL1        0.0145
     31 C         139.2115  138.6228  165.3266 C.ar    1  UNL1        0.0580
     32 CL        139.0235  137.1452  165.5043 Cl      1  UNL1       -0.0822
     33 C         140.5943  139.1989  165.2496 C.ar    1  UNL1        0.0190
     34 C         140.7824  140.6764  165.0718 C.ar    1  UNL1        0.0881
     35 C         138.6064  143.9832  164.9402 C.3     1  UNL1        0.2525
     36 O         139.7757  143.0553  164.7934 O.3     1  UNL1       -0.4713
@<TRIPOS>BOND
     1    35    36    1
     2    36    28    1
     3    28    29   ar
     4    29    30   ar
     5    30    31   ar
     6    31    32    1
     7    31    33   ar
     8    33    34   ar
     9    34    24    1
    10    24    25    2
    11    24    26   am
    12    26    23    1
    13    23    22    1
    14    22     1    1
    15     1     2   ar
    16     2     3   ar
    17     3     4   ar
    18     4     7    1
    19     7     8    2
    20     7     9    2
    21     7    10    1
    22    10    11   am
    23    11    12    2
    24    11    13   am
    25    13    16    1
    26    16    17    1
    27    17    18    1
    28    18    19    1
    29    19    20    1
    30    20    21    1
    31     4     5   ar
    32     5     6   ar
    33    34    28   ar
    34     6     1   ar
    35    21    16    1
    36    26    27    1
    37    10    14    1
    38    13    15    1
@<TRIPOS>MOLECULE
*****
 36 38 0 0 0
SMALL
GASTEIGER

@<TRIPOS>ATOM
      1 C         141.1306  143.1668  160.2866 C.ar    1  UNL1       -0.0204
      2 C         140.3156  142.3013  159.3719 C.ar    1  UNL1       -0.0028
      3 C         140.9861  141.2469  158.5421 C.ar    1  UNL1        0.0199
      4 C         142.4717  141.0581  158.6269 C.ar    1  UNL1        0.1253
      5 C         143.2868  141.9236  159.5415 C.ar    1  UNL1        0.0199
      6 C         142.6162  142.9779  160.3714 C.ar    1  UNL1       -0.0028
      7 S         143.1423  140.0037  157.7970 S.O2    1  UNL1        0.0768
      8 O         143.9447  139.5753  158.9898 O.2     1  UNL1       -0.1498
      9 O         142.3400  140.4321  156.6043 O.2     1  UNL1       -0.1498
     10 N         143.8129  138.9493  156.9673 N.am    1  UNL1       -0.1693
     11 C         143.2069  137.5815  156.8599 C.2     1  UNL1        0.3194
     12 O         141.9302  137.2680  157.5822 O.2     1  UNL1       -0.2512
     13 N         143.8775  136.5270  156.0300 N.am    1  UNL1       -0.2894
     14 H         144.6509  139.1551  156.4932 H       1  UNL1        0.1781
     15 H         144.7154  136.7328  155.5559 H       1  UNL1        0.1509
     16 C         143.2714  135.1592  155.9226 C.3     1  UNL1        0.0731
     17 C         143.7098  134.0692  156.8554 C.3     1  UNL1        0.0196
     18 C         143.1037  132.7013  156.7480 C.3     1  UNL1        0.0017
     19 C         142.0593  132.4233  155.7078 C.3     1  UNL1        0.0001
     20 C         141.6209  133.5132  154.7751 C.3     1  UNL1        0.0017
     21 C         142.2270  134.8811  154.8825 C.3     1  UNL1        0.0196
     22 C         140.4600  144.2212  161.1164 C.3     1  UNL1        0.0476
     23 C         139.5224  143.8247  162.2181 C.3     1  UNL1        0.0944
     24 C         138.5179  141.6002  163.1084 C.2     1  UNL1        0.2488
     25 O         137.1648  142.0109  162.6079 O.2     1  UNL1       -0.2700
     26 N         139.6967  142.5071  162.9134 N.am    1  UNL1       -0.3004
     27 H         140.5848  142.2376  163.2419 H       1  UNL1        0.1498
     28 C         139.4973  139.1943  163.1576 C.ar    1  UNL1        0.1431
     29 C         139.6716  137.8767  163.8530 C.ar    1  UNL1        0.0379
     30 C         139.0409  137.6475  165.1945 C.ar    1  UNL1        0.0145
     31 C         138.2358  138.7358  165.8407 C.ar    1  UNL1        0.0580
     32 CL        137.6051  138.5065  167.1822 Cl      1  UNL1       -0.0822
     33 C         138.0615  140.0533  165.1453 C.ar    1  UNL1        0.0190
     34 C         138.6922  140.2826  163.8038 C.ar    1  UNL1        0.0881
     35 C         141.5461  139.0005  161.5720 C.3     1  UNL1        0.2525
     36 O         140.1280  139.4236  161.8161 O.3     1  UNL1       -0.4713
@<TRIPOS>BOND
     1    35    36    1
     2    36    28    1
     3    28    29   ar
     4    29    30   ar
     5    30    31   ar
     6    31    32    1
     7    31    33   ar
     8    33    34   ar
     9    34    24    1
    10    24    25    2
    11    24    26   am
    12    26    23    1
    13    23    22    1
    14    22     1    1
    15     1     2   ar
    16     2     3   ar
    17     3     4   ar
    18     4     7    1
    19     7     8    2
    20     7     9    2
    21     7    10    1
    22    10    11   am
    23    11    12    2
    24    11    13   am
    25    13    16    1
    26    16    17    1
    27    17    18    1
    28    18    19    1
    29    19    20    1
    30    20    21    1
    31     4     5   ar
    32     5     6   ar
    33    34    28   ar
    34     6     1   ar
    35    21    16    1
    36    26    27    1
    37    10    14    1
    38    13    15    1
@<TRIPOS>MOLECULE
*****
 36 38 0 0 0
SMALL
GASTEIGER

@<TRIPOS>ATOM
      1 C         143.9251  140.4795  159.8243 C.ar    1  UNL1       -0.0204
      2 C         143.7072  139.0353  160.1660 C.ar    1  UNL1       -0.0028
      3 C         143.6507  138.6046  161.6017 C.ar    1  UNL1        0.0199
      4 C         143.8122  139.6180  162.6956 C.ar    1  UNL1        0.1253
      5 C         144.0302  141.0622  162.3539 C.ar    1  UNL1        0.0199
      6 C         144.0867  141.4930  160.9182 C.ar    1  UNL1       -0.0028
      7 S         143.7558  139.1873  164.1314 S.O2    1  UNL1        0.0768
      8 O         142.4792  138.4481  163.8594 O.2     1  UNL1       -0.1498
      9 O         145.0323  139.9265  164.4034 O.2     1  UNL1       -0.1498
     10 N         143.6993  138.7566  165.5671 N.am    1  UNL1       -0.1693
     11 C         142.9862  139.6056  166.5773 C.2     1  UNL1        0.3194
     12 O         142.3295  140.8854  166.1518 O.2     1  UNL1       -0.2512
     13 N         142.9296  139.1749  168.0131 N.am    1  UNL1       -0.2894
     14 H         144.1302  137.9166  165.8464 H       1  UNL1        0.1781
     15 H         143.3606  138.3349  168.2923 H       1  UNL1        0.1509
     16 C         142.2165  140.0239  169.0233 C.3     1  UNL1        0.0731
     17 C         142.9830  141.0233  169.8381 C.3     1  UNL1        0.0196
     18 C         142.2699  141.8724  170.8483 C.3     1  UNL1        0.0017
     19 C         140.7903  141.7221  171.0437 C.3     1  UNL1        0.0001
     20 C         140.0238  140.7228  170.2290 C.3     1  UNL1        0.0017
     21 C         140.7369  139.8737  169.2187 C.3     1  UNL1        0.0196
     22 C         143.9816  140.9103  158.3885 C.3     1  UNL1        0.0476
     23 C         144.8226  142.0870  157.9911 C.3     1  UNL1        0.0944
     24 C         147.0449  142.5706  156.7351 C.2     1  UNL1        0.2488
     25 O         147.6226  143.1641  157.9857 O.2     1  UNL1       -0.2700
     26 N         145.6449  142.0321  156.7378 N.am    1  UNL1       -0.3004
     27 H         145.2657  141.6426  155.9170 H       1  UNL1        0.1498
     28 C         147.3954  143.2191  154.2438 C.ar    1  UNL1        0.1431
     29 C         148.2177  143.1641  152.9905 C.ar    1  UNL1        0.0379
     30 C         149.5118  142.4056  152.9752 C.ar    1  UNL1        0.0145
     31 C         149.9835  141.7022  154.2131 C.ar    1  UNL1        0.0580
     32 CL        151.2776  140.9438  154.1978 Cl      1  UNL1       -0.0822
     33 C         149.1612  141.7572  155.4664 C.ar    1  UNL1        0.0190
     34 C         147.8672  142.5156  155.4817 C.ar    1  UNL1        0.0881
     35 C         145.7222  144.8375  153.0901 C.3     1  UNL1        0.2525
     36 O         146.1014  143.9775  154.2591 O.3     1  UNL1       -0.4713
@<TRIPOS>BOND
     1    35    36    1
     2    36    28    1
     3    28    29   ar
     4    29    30   ar
     5    30    31   ar
     6    31    32    1
     7    31    33   ar
     8    33    34   ar
     9    34    24    1
    10    24    25    2
    11    24    26   am
    12    26    23    1
    13    23    22    1
    14    22     1    1
    15     1     2   ar
    16     2     3   ar
    17     3     4   ar
    18     4     7    1
    19     7     8    2
    20     7     9    2
    21     7    10    1
    22    10    11   am
    23    11    12    2
    24    11    13   am
    25    13    16    1
    26    16    17    1
    27    17    18    1
    28    18    19    1
    29    19    20    1
    30    20    21    1
    31     4     5   ar
    32     5     6   ar
    33    34    28   ar
    34     6     1   ar
    35    21    16    1
    36    26    27    1
    37    10    14    1
    38    13    15    1
