@<TRIPOS>MOLECULE
*****
 50 54 0 0 0
SMALL
GASTEIGER

@<TRIPOS>ATOM
      1 C         140.5951  142.4026  158.9906 C.ar    1  UNL1        0.0005
      2 C         139.6473  142.4080  157.8280 C.ar    1  UNL1       -0.0002
      3 C         139.3863  143.6812  157.0791 C.ar    1  UNL1        0.0038
      4 C         140.0732  144.9490  157.4927 C.ar    1  UNL1        0.0712
      5 C         141.0210  144.9436  158.6553 C.ar    1  UNL1        0.0012
      6 C         141.2819  143.6703  159.4043 C.ar    1  UNL1       -0.0022
      7 C         141.7621  140.0871  159.1542 C.ar    1  UNL1        0.1386
      8 C         142.0230  138.8140  159.9031 C.ar    1  UNL1        0.0369
      9 C         141.3780  138.5832  161.2375 C.ar    1  UNL1        0.0031
     10 C         140.4720  139.6255  161.8230 C.ar    1  UNL1       -0.0001
     11 C         140.2111  140.8986  161.0740 C.ar    1  UNL1        0.0030
     12 C         140.8561  141.1294  159.7396 C.ar    1  UNL1        0.0337
     13 C         139.8270  139.3946  163.1574 C.ar    1  UNL1       -0.0039
     14 C         138.8016  140.3609  163.6720 C.ar    1  UNL1       -0.0003
     15 C         138.1566  140.1301  165.0064 C.ar    1  UNL1        0.0011
     16 C         138.5369  138.9330  165.8262 C.ar    1  UNL1        0.0137
     17 C         139.5623  137.9667  165.3117 C.ar    1  UNL1       -0.0031
     18 C         140.2073  138.1975  163.9772 C.ar    1  UNL1       -0.0218
     19 C         141.2328  137.2311  163.4627 C.3     1  UNL1        0.0310
     20 C         137.8919  138.7021  167.1606 C.2     1  UNL1        0.0729
     21 O         138.4290  139.3877  168.3819 O.co2   1  UNL1       -0.5446
     22 O         136.7098  137.7858  167.2738 O.co2   1  UNL1       -0.5446
     23 C         143.7773  140.9236  157.7438 C.3     1  UNL1        0.2525
     24 O         142.4071  140.3180  157.8198 O.3     1  UNL1       -0.4714
     25 C         139.8122  146.2221  156.7437 C.3     1  UNL1        0.4186
     26 F         139.5512  147.4952  155.9948 F       1  UNL1       -0.1659
     27 F         139.9807  145.4922  155.4442 F       1  UNL1       -0.1659
     28 F         139.6436  146.9520  158.0432 F       1  UNL1       -0.1659
     29 C         142.2298  143.6649  160.5669 C.3     1  UNL1        0.1235
     30 N         141.7002  143.5512  161.9657 N.am    1  UNL1       -0.2396
     31 C         140.6099  144.3880  162.5664 C.2     1  UNL1        0.4054
     32 O         139.8577  145.4856  161.8738 O.2     1  UNL1       -0.2262
     33 O         140.4038  143.9347  163.9814 O.3     1  UNL1       -0.4320
     34 C         141.3668  142.8176  164.2551 C.3     1  UNL1        0.2107
     35 C         142.1680  142.5806  163.0093 C.3     1  UNL1        0.1232
     36 C         143.2475  141.5535  162.8373 C.3     1  UNL1        0.0258
     37 C         141.5044  142.0690  165.5475 C.ar    1  UNL1        0.0189
     38 C         142.2876  140.7905  165.5942 C.ar    1  UNL1        0.0031
     39 C         142.4252  140.0420  166.8866 C.ar    1  UNL1        0.0712
     40 C         141.7797  140.5718  168.1327 C.ar    1  UNL1        0.0077
     41 C         140.9965  141.8504  168.0861 C.ar    1  UNL1        0.0712
     42 C         140.8589  142.5989  166.7936 C.ar    1  UNL1        0.0031
     43 C         143.2083  138.7635  166.9332 C.3     1  UNL1        0.4186
     44 F         143.9914  137.4850  166.9797 F       1  UNL1       -0.1659
     45 F         143.4776  138.8749  165.4618 F       1  UNL1       -0.1659
     46 F         142.9390  138.6521  168.4047 F       1  UNL1       -0.1659
     47 C         140.3510  142.3802  169.3322 C.3     1  UNL1        0.4186
     48 F         139.7055  142.9101  170.5782 F       1  UNL1       -0.1659
     49 F         140.1414  143.7049  168.6603 F       1  UNL1       -0.1659
     50 F         140.5605  141.0556  170.0040 F       1  UNL1       -0.1659
@<TRIPOS>UNITY_ATOM_ATTR
21 1
charge -1
@<TRIPOS>BOND
     1    23    24    1
     2    24     7    1
     3     7     8   ar
     4     8     9   ar
     5     9    10   ar
     6    10    13    1
     7    13    14   ar
     8    14    15   ar
     9    15    16   ar
    10    16    20    1
    11    20    21   ar
    12    20    22   ar
    13    16    17   ar
    14    17    18   ar
    15    18    19    1
    16    10    11   ar
    17    11    12   ar
    18    12     1    1
    19     1     2   ar
    20     2     3   ar
    21     3     4   ar
    22     4    25    1
    23    25    26    1
    24    25    27    1
    25    25    28    1
    26     4     5   ar
    27     5     6   ar
    28     6    29    1
    29    29    30    1
    30    30    31   am
    31    31    32    2
    32    31    33    1
    33    33    34    1
    34    34    37    1
    35    37    38   ar
    36    38    39   ar
    37    39    43    1
    38    43    44    1
    39    43    45    1
    40    43    46    1
    41    39    40   ar
    42    40    41   ar
    43    41    47    1
    44    47    48    1
    45    47    49    1
    46    47    50    1
    47    41    42   ar
    48    34    35    1
    49    35    36    1
    50    12     7   ar
    51     6     1   ar
    52    35    30    1
    53    18    13   ar
    54    42    37   ar
@<TRIPOS>MOLECULE
*****
 50 54 0 0 0
SMALL
GASTEIGER

@<TRIPOS>ATOM
      1 C         140.5282  142.3311  158.8740 C.ar    1  UNL1        0.0005
      2 C         139.5652  142.3463  157.7240 C.ar    1  UNL1       -0.0002
      3 C         139.3125  143.6205  156.9741 C.ar    1  UNL1        0.0038
      4 C         140.0229  144.8797  157.3741 C.ar    1  UNL1        0.0712
      5 C         140.9859  144.8645  158.5240 C.ar    1  UNL1        0.0012
      6 C         141.2386  143.5902  159.2740 C.ar    1  UNL1       -0.0022
      7 C         141.6552  139.9951  159.0253 C.ar    1  UNL1        0.1386
      8 C         141.9078  138.7208  159.7753 C.ar    1  UNL1        0.0369
      9 C         141.2861  138.5083  161.1237 C.ar    1  UNL1        0.0031
     10 C         140.4118  139.5700  161.7223 C.ar    1  UNL1       -0.0001
     11 C         140.1592  140.8443  160.9723 C.ar    1  UNL1        0.0030
     12 C         140.7809  141.0568  159.6239 C.ar    1  UNL1        0.0337
     13 C         139.7902  139.3575  163.0707 C.ar    1  UNL1       -0.0039
     14 C         138.7580  140.3190  163.5807 C.ar    1  UNL1       -0.0003
     15 C         138.1363  140.1064  164.9292 C.ar    1  UNL1        0.0011
     16 C         138.5468  138.9324  165.7677 C.ar    1  UNL1        0.0137
     17 C         139.5790  137.9709  165.2577 C.ar    1  UNL1       -0.0031
     18 C         140.2007  138.1835  163.9092 C.ar    1  UNL1       -0.0218
     19 C         141.2329  137.2219  163.3993 C.3     1  UNL1        0.0310
     20 C         137.9251  138.7199  167.1161 C.2     1  UNL1        0.0729
     21 O         136.7406  137.8112  167.2611 O.co2   1  UNL1       -0.5446
     22 O         138.4880  139.4161  168.3196 O.co2   1  UNL1       -0.5446
     23 C         143.6711  140.7504  157.5709 C.3     1  UNL1        0.2525
     24 O         142.2769  140.2076  157.6769 O.3     1  UNL1       -0.4714
     25 C         139.7702  146.1539  156.6242 C.3     1  UNL1        0.4186
     26 F         139.5175  147.4282  155.8743 F       1  UNL1       -0.1659
     27 F         139.8750  145.4105  155.3257 F       1  UNL1       -0.1659
     28 F         139.6654  146.8974  157.9228 F       1  UNL1       -0.1659
     29 C         142.2016  143.5750  160.4239 C.3     1  UNL1        0.1235
     30 N         141.6890  143.4777  161.8303 N.am    1  UNL1       -0.2396
     31 C         140.6143  144.3297  162.4378 C.2     1  UNL1        0.4054
     32 O         139.8635  145.4286  161.7457 O.2     1  UNL1       -0.2262
     33 O         140.4221  143.8899  163.8590 O.3     1  UNL1       -0.4320
     34 C         141.3781  142.7661  164.1297 C.3     1  UNL1        0.2107
     35 C         142.1610  142.5114  162.8759 C.3     1  UNL1        0.1232
     36 C         143.2286  141.4727  162.6988 C.3     1  UNL1        0.0258
     37 C         141.5252  142.0269  165.4265 C.ar    1  UNL1        0.0189
     38 C         140.8976  142.5711  166.6755 C.ar    1  UNL1        0.0031
     39 C         141.0447  141.8319  167.9723 C.ar    1  UNL1        0.0712
     40 C         141.8196  140.5484  168.0203 C.ar    1  UNL1        0.0077
     41 C         142.4473  140.0041  166.7713 C.ar    1  UNL1        0.0712
     42 C         142.3001  140.7435  165.4745 C.ar    1  UNL1        0.0031
     43 C         140.4170  142.3761  169.2212 C.3     1  UNL1        0.4186
     44 F         139.7893  142.9203  170.4701 F       1  UNL1       -0.1659
     45 F         140.7189  141.0907  169.9330 F       1  UNL1       -0.1659
     46 F         140.1151  143.6615  168.5094 F       1  UNL1       -0.1659
     47 C         143.2222  138.7207  166.8193 C.3     1  UNL1        0.4186
     48 F         143.9971  137.4372  166.8672 F       1  UNL1       -0.1659
     49 F         143.4676  138.8136  165.3424 F       1  UNL1       -0.1659
     50 F         142.9768  138.6277  168.2961 F       1  UNL1       -0.1659
@<TRIPOS>UNITY_ATOM_ATTR
21 1
charge -1
@<TRIPOS>BOND
     1    23    24    1
     2    24     7    1
     3     7     8   ar
     4     8     9   ar
     5     9    10   ar
     6    10    13    1
     7    13    14   ar
     8    14    15   ar
     9    15    16   ar
    10    16    20    1
    11    20    21   ar
    12    20    22   ar
    13    16    17   ar
    14    17    18   ar
    15    18    19    1
    16    10    11   ar
    17    11    12   ar
    18    12     1    1
    19     1     2   ar
    20     2     3   ar
    21     3     4   ar
    22     4    25    1
    23    25    26    1
    24    25    27    1
    25    25    28    1
    26     4     5   ar
    27     5     6   ar
    28     6    29    1
    29    29    30    1
    30    30    31   am
    31    31    32    2
    32    31    33    1
    33    33    34    1
    34    34    37    1
    35    37    38   ar
    36    38    39   ar
    37    39    43    1
    38    43    44    1
    39    43    45    1
    40    43    46    1
    41    39    40   ar
    42    40    41   ar
    43    41    47    1
    44    47    48    1
    45    47    49    1
    46    47    50    1
    47    41    42   ar
    48    34    35    1
    49    35    36    1
    50    12     7   ar
    51     6     1   ar
    52    35    30    1
    53    18    13   ar
    54    42    37   ar
@<TRIPOS>MOLECULE
*****
 50 54 0 0 0
SMALL
GASTEIGER

@<TRIPOS>ATOM
      1 C         141.8074  142.6558  159.4276 C.ar    1  UNL1        0.0005
      2 C         142.8691  143.3801  158.6541 C.ar    1  UNL1       -0.0002
      3 C         142.4967  144.5282  157.7636 C.ar    1  UNL1        0.0038
      4 C         141.0625  144.9521  157.6465 C.ar    1  UNL1        0.0712
      5 C         140.0009  144.2278  158.4200 C.ar    1  UNL1        0.0012
      6 C         140.3733  143.0796  159.3106 C.ar    1  UNL1       -0.0022
      7 C         142.3995  140.1444  159.7321 C.ar    1  UNL1        0.1386
      8 C         142.7719  138.9964  160.6226 C.ar    1  UNL1        0.0369
      9 C         142.9248  139.2114  162.0993 C.ar    1  UNL1        0.0031
     10 C         142.7052  140.5746  162.6853 C.ar    1  UNL1       -0.0001
     11 C         142.3327  141.7227  161.7948 C.ar    1  UNL1        0.0030
     12 C         142.1799  141.5076  160.3181 C.ar    1  UNL1        0.0337
     13 C         142.8581  140.7897  164.1619 C.ar    1  UNL1       -0.0039
     14 C         143.3086  142.1221  164.6831 C.ar    1  UNL1       -0.0003
     15 C         143.4615  142.3372  166.1597 C.ar    1  UNL1        0.0011
     16 C         143.1638  141.2198  167.1151 C.ar    1  UNL1        0.0137
     17 C         142.7132  139.8874  166.5940 C.ar    1  UNL1       -0.0031
     18 C         142.5604  139.6724  165.1174 C.ar    1  UNL1       -0.0218
     19 C         142.1098  138.3399  164.5962 C.3     1  UNL1        0.0310
     20 C         143.3166  141.4349  168.5917 C.2     1  UNL1        0.0729
     21 O         143.6568  142.7970  169.1200 O.co2   1  UNL1       -0.5446
     22 O         143.1293  140.2880  169.5401 O.co2   1  UNL1       -0.5446
     23 C         140.8954  139.6300  157.6771 C.3     1  UNL1        0.2525
     24 O         142.2466  139.9294  158.2555 O.3     1  UNL1       -0.4714
     25 C         140.6901  146.1002  156.7560 C.3     1  UNL1        0.4186
     26 F         140.3177  147.2483  155.8654 F       1  UNL1       -0.1659
     27 F         141.6413  145.5979  155.7106 F       1  UNL1       -0.1659
     28 F         139.7389  146.6025  157.8014 F       1  UNL1       -0.1659
     29 C         139.3117  142.3553  160.0841 C.3     1  UNL1        0.1235
     30 N         139.2276  142.5156  161.5732 N.am    1  UNL1       -0.2396
     31 C         139.1388  143.8155  162.3163 C.2     1  UNL1        0.4054
     32 O         139.1184  145.1833  161.7011 O.2     1  UNL1       -0.2262
     33 O         139.0739  143.5074  163.7830 O.3     1  UNL1       -0.4320
     34 C         139.1227  142.0170  163.9461 C.3     1  UNL1        0.2107
     35 C         139.2177  141.4041  162.5804 C.3     1  UNL1        0.1232
     36 C         139.2900  139.9372  162.2753 C.3     1  UNL1        0.0258
     37 C         139.0833  141.2707  165.2466 C.ar    1  UNL1        0.0189
     38 C         138.5180  139.8822  165.2978 C.ar    1  UNL1        0.0031
     39 C         138.4787  139.1359  166.5983 C.ar    1  UNL1        0.0712
     40 C         139.0047  139.7780  167.8477 C.ar    1  UNL1        0.0077
     41 C         139.5700  141.1665  167.7966 C.ar    1  UNL1        0.0712
     42 C         139.6093  141.9128  166.4960 C.ar    1  UNL1        0.0031
     43 C         137.9134  137.7474  166.6494 C.3     1  UNL1        0.4186
     44 F         137.3481  136.3590  166.7005 F       1  UNL1       -0.1659
     45 F         136.9797  138.1680  167.7454 F       1  UNL1       -0.1659
     46 F         138.8472  137.3268  165.5533 F       1  UNL1       -0.1659
     47 C         140.0959  141.8086  169.0460 C.3     1  UNL1        0.4186
     48 F         140.6219  142.4507  170.2955 F       1  UNL1       -0.1659
     49 F         139.8133  140.5501  169.8118 F       1  UNL1       -0.1659
     50 F         140.3786  143.0670  168.2803 F       1  UNL1       -0.1659
@<TRIPOS>UNITY_ATOM_ATTR
21 1
charge -1
@<TRIPOS>BOND
     1    23    24    1
     2    24     7    1
     3     7     8   ar
     4     8     9   ar
     5     9    10   ar
     6    10    13    1
     7    13    14   ar
     8    14    15   ar
     9    15    16   ar
    10    16    20    1
    11    20    21   ar
    12    20    22   ar
    13    16    17   ar
    14    17    18   ar
    15    18    19    1
    16    10    11   ar
    17    11    12   ar
    18    12     1    1
    19     1     2   ar
    20     2     3   ar
    21     3     4   ar
    22     4    25    1
    23    25    26    1
    24    25    27    1
    25    25    28    1
    26     4     5   ar
    27     5     6   ar
    28     6    29    1
    29    29    30    1
    30    30    31   am
    31    31    32    2
    32    31    33    1
    33    33    34    1
    34    34    37    1
    35    37    38   ar
    36    38    39   ar
    37    39    43    1
    38    43    44    1
    39    43    45    1
    40    43    46    1
    41    39    40   ar
    42    40    41   ar
    43    41    47    1
    44    47    48    1
    45    47    49    1
    46    47    50    1
    47    41    42   ar
    48    34    35    1
    49    35    36    1
    50    12     7   ar
    51     6     1   ar
    52    35    30    1
    53    18    13   ar
    54    42    37   ar
@<TRIPOS>MOLECULE
*****
 50 54 0 0 0
SMALL
GASTEIGER

@<TRIPOS>ATOM
      1 C         142.4271  142.1235  159.3619 C.ar    1  UNL1        0.0005
      2 C         143.4968  142.8902  158.6421 C.ar    1  UNL1       -0.0002
      3 C         143.1211  143.9641  157.6647 C.ar    1  UNL1        0.0038
      4 C         141.6757  144.2714  157.4069 C.ar    1  UNL1        0.0712
      5 C         140.6060  143.5047  158.1267 C.ar    1  UNL1        0.0012
      6 C         140.9818  142.4307  159.1041 C.ar    1  UNL1       -0.0022
      7 C         143.1699  139.6813  159.8460 C.ar    1  UNL1        0.1386
      8 C         143.5457  138.6074  160.8234 C.ar    1  UNL1        0.0369
      9 C         143.5544  138.9016  162.2943 C.ar    1  UNL1        0.0031
     10 C         143.1873  140.2698  162.7876 C.ar    1  UNL1       -0.0001
     11 C         142.8116  141.3437  161.8102 C.ar    1  UNL1        0.0030
     12 C         142.8029  141.0495  160.3393 C.ar    1  UNL1        0.0337
     13 C         143.1960  140.5640  164.2585 C.ar    1  UNL1       -0.0039
     14 C         143.6432  141.9080  164.7519 C.ar    1  UNL1       -0.0003
     15 C         143.6519  142.2023  166.2227 C.ar    1  UNL1        0.0011
     16 C         143.2134  141.1524  167.2002 C.ar    1  UNL1        0.0137
     17 C         142.7662  139.8083  166.7068 C.ar    1  UNL1       -0.0031
     18 C         142.7576  139.5141  165.2359 C.ar    1  UNL1       -0.0218
     19 C         142.3104  138.1699  164.7426 C.3     1  UNL1        0.0310
     20 C         143.2221  141.4466  168.6710 C.2     1  UNL1        0.0729
     21 O         143.4020  142.8556  169.1530 O.co2   1  UNL1       -0.5446
     22 O         143.0508  140.3318  169.6599 O.co2   1  UNL1       -0.5446
     23 C         142.6440  138.0704  157.8767 C.3     1  UNL1        0.2525
     24 O         143.1612  139.3871  158.3751 O.3     1  UNL1       -0.4714
     25 C         141.3000  145.3454  156.4295 C.3     1  UNL1        0.4186
     26 F         140.9243  146.4193  155.4521 F       1  UNL1       -0.1659
     27 F         140.4727  144.3574  155.6619 F       1  UNL1       -0.1659
     28 F         142.1273  146.3334  157.1971 F       1  UNL1       -0.1659
     29 C         139.9121  141.6640  159.8239 C.3     1  UNL1        0.1235
     30 N         139.6419  141.9352  161.2742 N.am    1  UNL1       -0.2396
     31 C         139.3589  143.2769  161.8824 C.2     1  UNL1        0.4054
     32 O         139.2965  144.5829  161.1472 O.2     1  UNL1       -0.2262
     33 O         139.1493  143.0833  163.3551 O.3     1  UNL1       -0.4320
     34 C         139.3027  141.6220  163.6570 C.3     1  UNL1        0.2107
     35 C         139.6071  140.9125  162.3709 C.3     1  UNL1        0.1232
     36 C         139.8365  139.4389  162.2097 C.3     1  UNL1        0.0258
     37 C         139.1743  140.9825  165.0076 C.ar    1  UNL1        0.0189
     38 C         139.6364  141.7159  166.2318 C.ar    1  UNL1        0.0031
     39 C         139.5079  141.0764  167.5825 C.ar    1  UNL1        0.0712
     40 C         138.9173  139.7034  167.7091 C.ar    1  UNL1        0.0077
     41 C         138.4552  138.9699  166.4850 C.ar    1  UNL1        0.0712
     42 C         138.5837  139.6095  165.1343 C.ar    1  UNL1        0.0031
     43 C         139.9700  141.8099  168.8066 C.3     1  UNL1        0.4186
     44 F         140.4321  142.5434  170.0307 F       1  UNL1       -0.1659
     45 F         140.4013  142.9646  167.9518 F       1  UNL1       -0.1659
     46 F         139.5387  140.6552  169.6614 F       1  UNL1       -0.1659
     47 C         137.8646  137.5968  166.6117 C.3     1  UNL1        0.4186
     48 F         137.2741  136.2238  166.7383 F       1  UNL1       -0.1659
     49 F         138.7690  137.1071  165.5198 F       1  UNL1       -0.1659
     50 F         136.9602  138.0866  167.7035 F       1  UNL1       -0.1659
@<TRIPOS>UNITY_ATOM_ATTR
21 1
charge -1
@<TRIPOS>BOND
     1    23    24    1
     2    24     7    1
     3     7     8   ar
     4     8     9   ar
     5     9    10   ar
     6    10    13    1
     7    13    14   ar
     8    14    15   ar
     9    15    16   ar
    10    16    20    1
    11    20    21   ar
    12    20    22   ar
    13    16    17   ar
    14    17    18   ar
    15    18    19    1
    16    10    11   ar
    17    11    12   ar
    18    12     1    1
    19     1     2   ar
    20     2     3   ar
    21     3     4   ar
    22     4    25    1
    23    25    26    1
    24    25    27    1
    25    25    28    1
    26     4     5   ar
    27     5     6   ar
    28     6    29    1
    29    29    30    1
    30    30    31   am
    31    31    32    2
    32    31    33    1
    33    33    34    1
    34    34    37    1
    35    37    38   ar
    36    38    39   ar
    37    39    43    1
    38    43    44    1
    39    43    45    1
    40    43    46    1
    41    39    40   ar
    42    40    41   ar
    43    41    47    1
    44    47    48    1
    45    47    49    1
    46    47    50    1
    47    41    42   ar
    48    34    35    1
    49    35    36    1
    50    12     7   ar
    51     6     1   ar
    52    35    30    1
    53    18    13   ar
    54    42    37   ar
@<TRIPOS>MOLECULE
*****
 50 54 0 0 0
SMALL
GASTEIGER

@<TRIPOS>ATOM
      1 C         142.1464  141.4593  158.9176 C.ar    1  UNL1        0.0005
      2 C         142.8958  140.3642  158.2181 C.ar    1  UNL1       -0.0002
      3 C         144.2903  140.6079  157.7223 C.ar    1  UNL1        0.0038
      4 C         144.9355  141.9467  157.9258 C.ar    1  UNL1        0.0712
      5 C         144.1862  143.0418  158.6253 C.ar    1  UNL1        0.0012
      6 C         142.7916  142.7980  159.1212 C.ar    1  UNL1       -0.0022
      7 C         139.5825  141.4291  158.4986 C.ar    1  UNL1        0.1386
      8 C         138.1880  141.1854  158.9945 C.ar    1  UNL1        0.0369
      9 C         137.9629  140.7282  160.4053 C.ar    1  UNL1        0.0031
     10 C         139.1322  140.5146  161.3201 C.ar    1  UNL1       -0.0001
     11 C         140.5267  140.7583  160.8242 C.ar    1  UNL1        0.0030
     12 C         140.7519  141.2156  159.4135 C.ar    1  UNL1        0.0337
     13 C         138.9071  140.0574  162.7309 C.ar    1  UNL1       -0.0039
     14 C         138.1637  140.9346  163.6940 C.ar    1  UNL1       -0.0003
     15 C         137.9385  140.4774  165.1048 C.ar    1  UNL1        0.0011
     16 C         138.4567  139.1428  165.5524 C.ar    1  UNL1        0.0137
     17 C         139.2001  138.2656  164.5892 C.ar    1  UNL1       -0.0031
     18 C         139.4253  138.7228  163.1785 C.ar    1  UNL1       -0.0218
     19 C         140.1687  137.8455  162.2153 C.3     1  UNL1        0.0310
     20 C         138.2316  138.6856  166.9631 C.2     1  UNL1        0.0729
     21 O         138.8868  139.4116  168.1005 O.co2   1  UNL1       -0.5446
     22 O         137.3512  137.5023  167.2365 O.co2   1  UNL1       -0.5446
     23 C         139.7686  143.3492  156.7583 C.3     1  UNL1        0.2525
     24 O         139.8077  141.8864  157.0879 O.3     1  UNL1       -0.4714
     25 C         146.3300  142.1903  157.4300 C.3     1  UNL1        0.4186
     26 F         147.7245  142.4340  156.9341 F       1  UNL1       -0.1659
     27 F         146.5807  143.1109  158.5874 F       1  UNL1       -0.1659
     28 F         146.0793  141.2697  156.2726 F       1  UNL1       -0.1659
     29 C         142.0422  143.8931  159.8206 C.3     1  UNL1        0.1235
     30 N         141.4634  143.6538  161.1837 N.am    1  UNL1       -0.2396
     31 C         140.1405  144.1569  161.6804 C.2     1  UNL1        0.4054
     32 O         139.1642  144.9877  160.9016 O.2     1  UNL1       -0.2262
     33 O         139.9653  143.6833  163.0930 O.3     1  UNL1       -0.4320
     34 C         141.1799  142.8876  163.4691 C.3     1  UNL1        0.2107
     35 C         142.1058  142.8693  162.2890 C.3     1  UNL1        0.1232
     36 C         143.4398  142.1865  162.2255 C.3     1  UNL1        0.0258
     37 C         141.4256  142.2262  164.7927 C.ar    1  UNL1        0.0189
     38 C         140.9965  142.9032  166.0606 C.ar    1  UNL1        0.0031
     39 C         141.2421  142.2419  167.3843 C.ar    1  UNL1        0.0712
     40 C         141.9169  140.9034  167.4402 C.ar    1  UNL1        0.0077
     41 C         142.3461  140.2263  166.1723 C.ar    1  UNL1        0.0712
     42 C         142.1004  140.8877  164.8486 C.ar    1  UNL1        0.0031
     43 C         140.8129  142.9190  168.6521 C.3     1  UNL1        0.4186
     44 F         140.3838  143.5960  169.9199 F       1  UNL1       -0.1659
     45 F         139.8738  143.7884  167.8698 F       1  UNL1       -0.1659
     46 F         141.7522  142.0494  169.4344 F       1  UNL1       -0.1659
     47 C         143.0209  138.8878  166.2282 C.3     1  UNL1        0.4186
     48 F         143.6957  137.5494  166.2841 F       1  UNL1       -0.1659
     49 F         143.2372  139.0585  167.7027 F       1  UNL1       -0.1659
     50 F         142.8046  138.7172  164.7538 F       1  UNL1       -0.1659
@<TRIPOS>UNITY_ATOM_ATTR
21 1
charge -1
@<TRIPOS>BOND
     1    23    24    1
     2    24     7    1
     3     7     8   ar
     4     8     9   ar
     5     9    10   ar
     6    10    13    1
     7    13    14   ar
     8    14    15   ar
     9    15    16   ar
    10    16    20    1
    11    20    21   ar
    12    20    22   ar
    13    16    17   ar
    14    17    18   ar
    15    18    19    1
    16    10    11   ar
    17    11    12   ar
    18    12     1    1
    19     1     2   ar
    20     2     3   ar
    21     3     4   ar
    22     4    25    1
    23    25    26    1
    24    25    27    1
    25    25    28    1
    26     4     5   ar
    27     5     6   ar
    28     6    29    1
    29    29    30    1
    30    30    31   am
    31    31    32    2
    32    31    33    1
    33    33    34    1
    34    34    37    1
    35    37    38   ar
    36    38    39   ar
    37    39    43    1
    38    43    44    1
    39    43    45    1
    40    43    46    1
    41    39    40   ar
    42    40    41   ar
    43    41    47    1
    44    47    48    1
    45    47    49    1
    46    47    50    1
    47    41    42   ar
    48    34    35    1
    49    35    36    1
    50    12     7   ar
    51     6     1   ar
    52    35    30    1
    53    18    13   ar
    54    42    37   ar
@<TRIPOS>MOLECULE
*****
 50 54 0 0 0
SMALL
GASTEIGER

@<TRIPOS>ATOM
      1 C         141.5860  142.2556  158.5545 C.ar    1  UNL1        0.0005
      2 C         142.5377  143.4000  158.3681 C.ar    1  UNL1       -0.0002
      3 C         142.0260  144.7346  157.9135 C.ar    1  UNL1        0.0038
      4 C         140.5624  144.9250  157.6452 C.ar    1  UNL1        0.0712
      5 C         139.6107  143.7807  157.8316 C.ar    1  UNL1        0.0012
      6 C         140.1225  142.4460  158.2862 C.ar    1  UNL1       -0.0022
      7 C         142.3956  139.8494  158.0026 C.ar    1  UNL1        0.1386
      8 C         142.9074  138.5147  158.4572 C.ar    1  UNL1        0.0369
      9 C         143.1214  138.2516  159.9184 C.ar    1  UNL1        0.0031
     10 C         142.8236  139.3232  160.9249 C.ar    1  UNL1       -0.0001
     11 C         142.3119  140.6578  160.4702 C.ar    1  UNL1        0.0030
     12 C         142.0978  140.9209  159.0091 C.ar    1  UNL1        0.0337
     13 C         143.0377  139.0601  162.3860 C.ar    1  UNL1       -0.0039
     14 C         142.2244  138.0122  163.0864 C.ar    1  UNL1       -0.0003
     15 C         142.4385  137.7491  164.5476 C.ar    1  UNL1        0.0011
     16 C         143.4658  138.5339  165.3084 C.ar    1  UNL1        0.0137
     17 C         144.2790  139.5817  164.6080 C.ar    1  UNL1       -0.0031
     18 C         144.0650  139.8448  163.1468 C.ar    1  UNL1       -0.0218
     19 C         144.8783  140.8927  162.4464 C.3     1  UNL1        0.0310
     20 C         143.6798  138.2708  166.7695 C.2     1  UNL1        0.0729
     21 O         144.5408  137.1230  167.2066 O.co2   1  UNL1       -0.5446
     22 O         143.0328  139.1555  167.7935 O.co2   1  UNL1       -0.5446
     23 C         143.3599  140.3047  155.6335 C.3     1  UNL1        0.2525
     24 O         142.1815  140.1125  156.5414 O.3     1  UNL1       -0.4714
     25 C         140.0507  146.2597  157.1906 C.3     1  UNL1        0.4186
     26 F         139.5390  147.5944  156.7360 F       1  UNL1       -0.1659
     27 F         139.5808  146.5543  158.5843 F       1  UNL1       -0.1659
     28 F         140.5206  145.9652  155.7969 F       1  UNL1       -0.1659
     29 C         139.1708  141.3016  158.4726 C.3     1  UNL1        0.1235
     30 N         139.2522  140.4517  159.7059 N.am    1  UNL1       -0.2396
     31 C         139.3161  138.9535  159.7414 C.2     1  UNL1        0.4054
     32 O         139.3098  138.0421  158.5500 O.2     1  UNL1       -0.2262
     33 O         139.3874  138.5265  161.1777 O.3     1  UNL1       -0.4320
     34 C         139.3676  139.7610  162.0297 C.3     1  UNL1        0.2107
     35 C         139.2840  140.9507  161.1201 C.3     1  UNL1        0.1232
     36 C         139.2400  142.3873  161.5492 C.3     1  UNL1        0.0258
     37 C         139.4218  139.7989  163.5282 C.ar    1  UNL1        0.0189
     38 C         138.5955  138.8401  164.3332 C.ar    1  UNL1        0.0031
     39 C         138.6497  138.8781  165.8316 C.ar    1  UNL1        0.0712
     40 C         139.5302  139.8748  166.5253 C.ar    1  UNL1        0.0077
     41 C         140.3566  140.8336  165.7204 C.ar    1  UNL1        0.0712
     42 C         140.3023  140.7956  164.2218 C.ar    1  UNL1        0.0031
     43 C         137.8234  137.9193  166.6365 C.3     1  UNL1        0.4186
     44 F         136.9970  136.9605  167.4414 F       1  UNL1       -0.1659
     45 F         137.4296  139.0339  167.5599 F       1  UNL1       -0.1659
     46 F         138.2172  136.8046  165.7131 F       1  UNL1       -0.1659
     47 C         141.2372  141.8304  166.4140 C.3     1  UNL1        0.4186
     48 F         142.1177  142.8271  167.1077 F       1  UNL1       -0.1659
     49 F         140.4791  141.6122  167.6898 F       1  UNL1       -0.1659
     50 F         141.9952  142.0486  165.1382 F       1  UNL1       -0.1659
@<TRIPOS>UNITY_ATOM_ATTR
21 1
charge -1
@<TRIPOS>BOND
     1    23    24    1
     2    24     7    1
     3     7     8   ar
     4     8     9   ar
     5     9    10   ar
     6    10    13    1
     7    13    14   ar
     8    14    15   ar
     9    15    16   ar
    10    16    20    1
    11    20    21   ar
    12    20    22   ar
    13    16    17   ar
    14    17    18   ar
    15    18    19    1
    16    10    11   ar
    17    11    12   ar
    18    12     1    1
    19     1     2   ar
    20     2     3   ar
    21     3     4   ar
    22     4    25    1
    23    25    26    1
    24    25    27    1
    25    25    28    1
    26     4     5   ar
    27     5     6   ar
    28     6    29    1
    29    29    30    1
    30    30    31   am
    31    31    32    2
    32    31    33    1
    33    33    34    1
    34    34    37    1
    35    37    38   ar
    36    38    39   ar
    37    39    43    1
    38    43    44    1
    39    43    45    1
    40    43    46    1
    41    39    40   ar
    42    40    41   ar
    43    41    47    1
    44    47    48    1
    45    47    49    1
    46    47    50    1
    47    41    42   ar
    48    34    35    1
    49    35    36    1
    50    12     7   ar
    51     6     1   ar
    52    35    30    1
    53    18    13   ar
    54    42    37   ar
@<TRIPOS>MOLECULE
*****
 50 54 0 0 0
SMALL
GASTEIGER

@<TRIPOS>ATOM
      1 C         140.3907  141.8770  158.7594 C.ar    1  UNL1        0.0005
      2 C         141.3249  141.9282  157.5869 C.ar    1  UNL1       -0.0002
      3 C         141.5044  143.2084  156.8262 C.ar    1  UNL1        0.0038
      4 C         140.7497  144.4376  157.2380 C.ar    1  UNL1        0.0712
      5 C         139.8155  144.3865  158.4105 C.ar    1  UNL1        0.0012
      6 C         139.6360  143.1062  159.1712 C.ar    1  UNL1       -0.0022
      7 C         139.3352  139.5121  158.9667 C.ar    1  UNL1        0.1386
      8 C         139.1558  138.2318  159.7274 C.ar    1  UNL1        0.0369
      9 C         139.8523  138.0362  161.0414 C.ar    1  UNL1        0.0031
     10 C         140.7283  139.1208  161.5947 C.ar    1  UNL1       -0.0001
     11 C         140.9077  140.4011  160.8341 C.ar    1  UNL1        0.0030
     12 C         140.2112  140.5967  159.5201 C.ar    1  UNL1        0.0337
     13 C         141.4248  138.9252  162.9088 C.ar    1  UNL1       -0.0039
     14 C         141.0674  137.7581  163.7806 C.ar    1  UNL1       -0.0003
     15 C         141.7639  137.5625  165.0946 C.ar    1  UNL1        0.0011
     16 C         142.8178  138.5339  165.5368 C.ar    1  UNL1        0.0137
     17 C         143.1751  139.7010  164.6649 C.ar    1  UNL1       -0.0031
     18 C         142.4786  139.8967  163.3509 C.ar    1  UNL1       -0.0218
     19 C         142.8360  141.0638  162.4791 C.3     1  UNL1        0.0310
     20 C         143.5143  138.3383  166.8508 C.2     1  UNL1        0.0729
     21 O         144.6200  137.3319  166.9710 O.co2   1  UNL1       -0.5446
     22 O         143.1051  139.1491  168.0445 O.co2   1  UNL1       -0.5446
     23 C         139.2211  139.1219  156.4007 C.3     1  UNL1        0.2525
     24 O         138.6387  139.7077  157.6527 O.3     1  UNL1       -0.4714
     25 C         140.9292  145.7179  156.4773 C.3     1  UNL1        0.4186
     26 F         141.1087  146.9982  155.7167 F       1  UNL1       -0.1659
     27 F         139.8023  146.3356  157.2510 F       1  UNL1       -0.1659
     28 F         142.0561  145.1002  155.7037 F       1  UNL1       -0.1659
     29 C         138.7018  143.0551  160.3437 C.3     1  UNL1        0.1235
     30 N         139.2510  142.9696  161.7370 N.am    1  UNL1       -0.2396
     31 C         140.3032  143.8617  162.3261 C.2     1  UNL1        0.4054
     32 O         140.9911  144.9957  161.6255 O.2     1  UNL1       -0.2262
     33 O         140.5469  143.4205  163.7390 O.3     1  UNL1       -0.4320
     34 C         139.6452  142.2558  164.0229 C.3     1  UNL1        0.2107
     35 C         138.8443  141.9772  162.7856 C.3     1  UNL1        0.1232
     36 C         137.8171  140.8960  162.6251 C.3     1  UNL1        0.0258
     37 C         139.5594  141.5022  165.3169 C.ar    1  UNL1        0.0189
     38 C         138.7615  140.2344  165.3952 C.ar    1  UNL1        0.0031
     39 C         138.6758  139.4808  166.6892 C.ar    1  UNL1        0.0712
     40 C         139.3880  139.9948  167.9051 C.ar    1  UNL1        0.0077
     41 C         140.1860  141.2626  167.8270 C.ar    1  UNL1        0.0712
     42 C         140.2717  142.0162  166.5329 C.ar    1  UNL1        0.0031
     43 C         137.8778  138.2131  166.7673 C.3     1  UNL1        0.4186
     44 F         137.0799  136.9453  166.8455 F       1  UNL1       -0.1659
     45 F         137.3021  138.6563  168.0796 F       1  UNL1       -0.1659
     46 F         138.4535  137.7697  165.4550 F       1  UNL1       -0.1659
     47 C         140.8982  141.7767  169.0429 C.3     1  UNL1        0.4186
     48 F         141.6104  142.2907  170.2589 F       1  UNL1       -0.1659
     49 F         142.0826  142.1381  168.1964 F       1  UNL1       -0.1659
     50 F         139.7138  141.4153  169.8894 F       1  UNL1       -0.1659
@<TRIPOS>UNITY_ATOM_ATTR
21 1
charge -1
@<TRIPOS>BOND
     1    23    24    1
     2    24     7    1
     3     7     8   ar
     4     8     9   ar
     5     9    10   ar
     6    10    13    1
     7    13    14   ar
     8    14    15   ar
     9    15    16   ar
    10    16    20    1
    11    20    21   ar
    12    20    22   ar
    13    16    17   ar
    14    17    18   ar
    15    18    19    1
    16    10    11   ar
    17    11    12   ar
    18    12     1    1
    19     1     2   ar
    20     2     3   ar
    21     3     4   ar
    22     4    25    1
    23    25    26    1
    24    25    27    1
    25    25    28    1
    26     4     5   ar
    27     5     6   ar
    28     6    29    1
    29    29    30    1
    30    30    31   am
    31    31    32    2
    32    31    33    1
    33    33    34    1
    34    34    37    1
    35    37    38   ar
    36    38    39   ar
    37    39    43    1
    38    43    44    1
    39    43    45    1
    40    43    46    1
    41    39    40   ar
    42    40    41   ar
    43    41    47    1
    44    47    48    1
    45    47    49    1
    46    47    50    1
    47    41    42   ar
    48    34    35    1
    49    35    36    1
    50    12     7   ar
    51     6     1   ar
    52    35    30    1
    53    18    13   ar
    54    42    37   ar
@<TRIPOS>MOLECULE
*****
 50 54 0 0 0
SMALL
GASTEIGER

@<TRIPOS>ATOM
      1 C         142.0870  141.5222  158.9650 C.ar    1  UNL1        0.0005
      2 C         142.8603  140.4605  158.2405 C.ar    1  UNL1       -0.0002
      3 C         144.2482  140.7471  157.7492 C.ar    1  UNL1        0.0038
      4 C         144.8630  142.0953  157.9825 C.ar    1  UNL1        0.0712
      5 C         144.0897  143.1570  158.7071 C.ar    1  UNL1        0.0012
      6 C         142.7017  142.8704  159.1983 C.ar    1  UNL1       -0.0022
      7 C         139.5287  141.3919  158.5310 C.ar    1  UNL1        0.1386
      8 C         138.1407  141.1053  159.0223 C.ar    1  UNL1        0.0369
      9 C         137.9230  140.6624  160.4387 C.ar    1  UNL1        0.0031
     10 C         139.0932  140.5060  161.3640 C.ar    1  UNL1       -0.0001
     11 C         140.4812  140.7926  160.8727 C.ar    1  UNL1        0.0030
     12 C         140.6989  141.2356  159.4562 C.ar    1  UNL1        0.0337
     13 C         138.8755  140.0630  162.7804 C.ar    1  UNL1       -0.0039
     14 C         138.2144  140.9853  163.7614 C.ar    1  UNL1       -0.0003
     15 C         137.9967  140.5423  165.1779 C.ar    1  UNL1        0.0011
     16 C         138.4400  139.1771  165.6133 C.ar    1  UNL1        0.0137
     17 C         139.1011  138.2549  164.6323 C.ar    1  UNL1       -0.0031
     18 C         139.3188  138.6979  163.2159 C.ar    1  UNL1       -0.0218
     19 C         139.9799  137.7756  162.2348 C.3     1  UNL1        0.0310
     20 C         138.2223  138.7341  167.0298 C.2     1  UNL1        0.0729
     21 O         138.9200  139.4426  168.1528 O.co2   1  UNL1       -0.5446
     22 O         137.3068  137.5827  167.3232 O.co2   1  UNL1       -0.5446
     23 C         139.5443  143.2730  156.7390 C.3     1  UNL1        0.2525
     24 O         139.7464  141.8349  157.1146 O.3     1  UNL1       -0.4714
     25 C         146.2510  142.3818  157.4913 C.3     1  UNL1        0.4186
     26 F         147.6390  142.6684  157.0001 F       1  UNL1       -0.1659
     27 F         146.5764  143.0442  158.7972 F       1  UNL1       -0.1659
     28 F         145.9256  141.7195  156.1854 F       1  UNL1       -0.1659
     29 C         141.9284  143.9320  159.9228 C.3     1  UNL1        0.1235
     30 N         141.4223  143.6754  161.3114 N.am    1  UNL1       -0.2396
     31 C         140.1323  144.1803  161.8869 C.2     1  UNL1        0.4054
     32 O         139.1221  145.0303  161.1750 O.2     1  UNL1       -0.2262
     33 O         140.0300  143.6858  163.2994 O.3     1  UNL1       -0.4320
     34 C         141.2568  142.8753  163.5968 C.3     1  UNL1        0.2107
     35 C         142.1172  142.8689  162.3681 C.3     1  UNL1        0.1232
     36 C         143.4402  142.1775  162.2218 C.3     1  UNL1        0.0258
     37 C         141.5683  142.1914  164.8949 C.ar    1  UNL1        0.0189
     38 C         142.0808  140.7816  164.8958 C.ar    1  UNL1        0.0031
     39 C         142.3923  140.0977  166.1939 C.ar    1  UNL1        0.0712
     40 C         142.1914  140.8235  167.4911 C.ar    1  UNL1        0.0077
     41 C         141.6789  142.2333  167.4903 C.ar    1  UNL1        0.0712
     42 C         141.3674  142.9171  166.1921 C.ar    1  UNL1        0.0031
     43 C         142.9048  138.6880  166.1948 C.3     1  UNL1        0.4186
     44 F         143.4173  137.2783  166.1957 F       1  UNL1       -0.1659
     45 F         143.2732  138.8228  167.6425 F       1  UNL1       -0.1659
     46 F         142.5364  138.5531  164.7469 F       1  UNL1       -0.1659
     47 C         141.4780  142.9590  168.7876 C.3     1  UNL1        0.4186
     48 F         141.2771  143.6848  170.0848 F       1  UNL1       -0.1659
     49 F         142.9509  142.8796  169.0601 F       1  UNL1       -0.1659
     50 F         140.0051  143.0385  168.5150 F       1  UNL1       -0.1659
@<TRIPOS>UNITY_ATOM_ATTR
21 1
charge -1
@<TRIPOS>BOND
     1    23    24    1
     2    24     7    1
     3     7     8   ar
     4     8     9   ar
     5     9    10   ar
     6    10    13    1
     7    13    14   ar
     8    14    15   ar
     9    15    16   ar
    10    16    20    1
    11    20    21   ar
    12    20    22   ar
    13    16    17   ar
    14    17    18   ar
    15    18    19    1
    16    10    11   ar
    17    11    12   ar
    18    12     1    1
    19     1     2   ar
    20     2     3   ar
    21     3     4   ar
    22     4    25    1
    23    25    26    1
    24    25    27    1
    25    25    28    1
    26     4     5   ar
    27     5     6   ar
    28     6    29    1
    29    29    30    1
    30    30    31   am
    31    31    32    2
    32    31    33    1
    33    33    34    1
    34    34    37    1
    35    37    38   ar
    36    38    39   ar
    37    39    43    1
    38    43    44    1
    39    43    45    1
    40    43    46    1
    41    39    40   ar
    42    40    41   ar
    43    41    47    1
    44    47    48    1
    45    47    49    1
    46    47    50    1
    47    41    42   ar
    48    34    35    1
    49    35    36    1
    50    12     7   ar
    51     6     1   ar
    52    35    30    1
    53    18    13   ar
    54    42    37   ar
@<TRIPOS>MOLECULE
*****
 50 54 0 0 0
SMALL
GASTEIGER

@<TRIPOS>ATOM
      1 C         141.1307  142.0438  158.3984 C.ar    1  UNL1        0.0005
      2 C         142.1047  142.6742  157.4477 C.ar    1  UNL1       -0.0002
      3 C         141.8295  144.0377  156.8866 C.ar    1  UNL1        0.0038
      4 C         140.5802  144.7710  157.2762 C.ar    1  UNL1        0.0712
      5 C         139.6062  144.1406  158.2269 C.ar    1  UNL1        0.0012
      6 C         139.8815  142.7769  158.7881 C.ar    1  UNL1       -0.0022
      7 C         141.2999  139.4710  158.0783 C.ar    1  UNL1        0.1386
      8 C         141.5752  138.1075  158.6395 C.ar    1  UNL1        0.0369
      9 C         141.9566  137.9531  160.0819 C.ar    1  UNL1        0.0031
     10 C         142.0628  139.1622  160.9632 C.ar    1  UNL1       -0.0001
     11 C         141.7875  140.5257  160.4020 C.ar    1  UNL1        0.0030
     12 C         141.4060  140.6802  158.9596 C.ar    1  UNL1        0.0337
     13 C         142.4443  139.0078  162.4056 C.ar    1  UNL1       -0.0039
     14 C         141.5638  138.2259  163.3347 C.ar    1  UNL1       -0.0003
     15 C         141.9452  138.0715  164.7772 C.ar    1  UNL1        0.0011
     16 C         143.2072  138.6990  165.2905 C.ar    1  UNL1        0.0137
     17 C         144.0878  139.4808  164.3614 C.ar    1  UNL1       -0.0031
     18 C         143.7063  139.6353  162.9190 C.ar    1  UNL1       -0.0218
     19 C         144.5869  140.4172  161.9899 C.3     1  UNL1        0.0310
     20 C         143.5887  138.5446  166.7329 C.2     1  UNL1        0.0729
     21 O         143.0704  139.5137  167.7537 O.co2   1  UNL1       -0.5446
     22 O         144.4885  137.4210  167.1546 O.co2   1  UNL1       -0.5446
     23 C         141.4534  138.6687  155.6120 C.3     1  UNL1        0.2525
     24 O         140.9184  139.6255  156.6359 O.3     1  UNL1       -0.4714
     25 C         140.3049  146.1345  156.7150 C.3     1  UNL1        0.4186
     26 F         140.0297  147.4981  156.1539 F       1  UNL1       -0.1659
     27 F         140.9179  145.7212  155.4099 F       1  UNL1       -0.1659
     28 F         139.6920  146.5479  158.0201 F       1  UNL1       -0.1659
     29 C         138.9075  142.1465  159.7388 C.3     1  UNL1        0.1235
     30 N         139.0669  142.3452  161.2171 N.am    1  UNL1       -0.2396
     31 C         139.3299  143.6505  161.9079 C.2     1  UNL1        0.4054
     32 O         139.4796  144.9861  161.2418 O.2     1  UNL1       -0.2262
     33 O         139.4167  143.3855  163.3818 O.3     1  UNL1       -0.4320
     34 C         139.2075  141.9165  163.6018 C.3     1  UNL1        0.2107
     35 C         138.9912  141.2736  162.2640 C.3     1  UNL1        0.1232
     36 C         138.7430  139.8152  162.0164 C.3     1  UNL1        0.0258
     37 C         139.2134  141.2139  164.9270 C.ar    1  UNL1        0.0189
     38 C         139.8561  141.8625  166.1171 C.ar    1  UNL1        0.0031
     39 C         139.8620  141.1599  167.4422 C.ar    1  UNL1        0.0712
     40 C         139.2252  139.8085  167.5775 C.ar    1  UNL1        0.0077
     41 C         138.5824  139.1598  166.3874 C.ar    1  UNL1        0.0712
     42 C         138.5765  139.8626  165.0622 C.ar    1  UNL1        0.0031
     43 C         140.5047  141.8086  168.6322 C.3     1  UNL1        0.4186
     44 F         141.1475  142.4572  169.8222 F       1  UNL1       -0.1659
     45 F         140.4499  143.1369  167.9377 F       1  UNL1       -0.1659
     46 F         140.5596  140.4801  169.3268 F       1  UNL1       -0.1659
     47 C         137.9456  137.8085  166.5227 C.3     1  UNL1        0.4186
     48 F         137.3088  136.4571  166.6579 F       1  UNL1       -0.1659
     49 F         138.7884  137.2981  165.3916 F       1  UNL1       -0.1659
     50 F         137.1028  138.3188  167.6537 F       1  UNL1       -0.1659
@<TRIPOS>UNITY_ATOM_ATTR
21 1
charge -1
@<TRIPOS>BOND
     1    23    24    1
     2    24     7    1
     3     7     8   ar
     4     8     9   ar
     5     9    10   ar
     6    10    13    1
     7    13    14   ar
     8    14    15   ar
     9    15    16   ar
    10    16    20    1
    11    20    21   ar
    12    20    22   ar
    13    16    17   ar
    14    17    18   ar
    15    18    19    1
    16    10    11   ar
    17    11    12   ar
    18    12     1    1
    19     1     2   ar
    20     2     3   ar
    21     3     4   ar
    22     4    25    1
    23    25    26    1
    24    25    27    1
    25    25    28    1
    26     4     5   ar
    27     5     6   ar
    28     6    29    1
    29    29    30    1
    30    30    31   am
    31    31    32    2
    32    31    33    1
    33    33    34    1
    34    34    37    1
    35    37    38   ar
    36    38    39   ar
    37    39    43    1
    38    43    44    1
    39    43    45    1
    40    43    46    1
    41    39    40   ar
    42    40    41   ar
    43    41    47    1
    44    47    48    1
    45    47    49    1
    46    47    50    1
    47    41    42   ar
    48    34    35    1
    49    35    36    1
    50    12     7   ar
    51     6     1   ar
    52    35    30    1
    53    18    13   ar
    54    42    37   ar
