@<TRIPOS>MOLECULE
*****
 24 26 0 0 0
SMALL
GASTEIGER

@<TRIPOS>ATOM
      1 C         141.7174  142.5246  166.4121 C.ar    1  UNL1        0.0192
      2 C         143.2161  142.5756  166.4482 C.ar    1  UNL1        0.0028
      3 C         143.9693  143.2744  165.3553 C.ar    1  UNL1        0.0173
      4 C         143.2238  143.9222  164.2263 C.ar    1  UNL1        0.0888
      5 N         141.7251  143.8711  164.1902 N.ar    1  UNL1       -0.2457
      6 C         140.9719  143.1724  165.2831 C.ar    1  UNL1        0.0985
      7 C         139.4578  140.4283  169.6908 C.ar    1  UNL1        0.1660
      8 C         139.3534  139.9391  168.2766 C.ar    1  UNL1        0.0392
      9 C         140.1066  140.6379  167.1838 C.ar    1  UNL1        0.0033
     10 C         140.9642  141.8258  167.5050 C.ar    1  UNL1        0.0039
     11 C         141.0686  142.3150  168.9191 C.ar    1  UNL1        0.0328
     12 C         140.3154  141.6163  170.0120 C.ar    1  UNL1        0.1738
     13 F         140.4198  142.1055  171.4261 F       1  UNL1       -0.2010
     14 C         137.2438  139.4328  170.6165 C.3     1  UNL1        0.2526
     15 O         138.7046  139.7295  170.7836 O.3     1  UNL1       -0.4692
     16 C         143.9770  144.6209  163.1334 C.3     1  UNL1        0.1873
     17 O         144.5453  143.8320  161.9913 O.3     1  UNL1       -0.3497
     18 C         144.3413  142.3472  161.9304 C.3     1  UNL1        0.1197
     19 C         145.0325  141.1563  162.5256 C.3     1  UNL1        0.0548
     20 C         144.0529  140.2473  161.8444 C.3     1  UNL1        0.1179
     21 C         143.3618  141.4381  161.2492 C.3     1  UNL1        0.0548
     22 N         143.8489  138.7625  161.7836 N.2     1  UNL1       -0.2240
     23 C         142.6094  138.1512  162.3668 C.1     1  UNL1        0.0364
     24 S         141.3700  137.5399  162.9499 S.2     1  UNL1        0.0203
@<TRIPOS>BOND
     1    14    15    1
     2    15     7    1
     3     7     8   ar
     4     8     9   ar
     5     9    10   ar
     6    10     1    1
     7     1     2   ar
     8     2     3   ar
     9     3     4   ar
    10     4    16    1
    11    16    17    1
    12    18    17    1
    13    18    19    1
    14    19    20    1
    15    20    22    1
    16    22    23    2
    17    23    24    2
    18    20    21    1
    19     4     5   ar
    20     5     6   ar
    21    10    11   ar
    22    11    12   ar
    23    12    13    1
    24    12     7   ar
    25     6     1   ar
    26    21    18    1
@<TRIPOS>MOLECULE
*****
 24 26 0 0 0
SMALL
GASTEIGER

@<TRIPOS>ATOM
      1 C         140.3903  139.9611  166.5713 C.ar    1  UNL1        0.0192
      2 C         138.9873  139.4314  166.6030 C.ar    1  UNL1        0.0028
      3 C         138.4453  138.6727  165.4280 C.ar    1  UNL1        0.0173
      4 C         139.3062  138.4438  164.2213 C.ar    1  UNL1        0.0888
      5 N         140.7092  138.9735  164.1895 N.ar    1  UNL1       -0.2457
      6 C         141.2512  139.7322  165.3645 C.ar    1  UNL1        0.0985
      7 C         142.0163  142.2371  170.0963 C.ar    1  UNL1        0.1660
      8 C         142.5313  140.8623  169.7890 C.ar    1  UNL1        0.0392
      9 C         141.9893  140.1036  168.6140 C.ar    1  UNL1        0.0033
     10 C         140.9323  140.7198  167.7463 C.ar    1  UNL1        0.0039
     11 C         140.4173  142.0947  168.0536 C.ar    1  UNL1        0.0328
     12 C         140.9593  142.8533  169.2286 C.ar    1  UNL1        0.1738
     13 F         140.4443  144.2283  169.5358 F       1  UNL1       -0.2010
     14 C         143.7331  143.9118  171.0954 C.3     1  UNL1        0.2526
     15 O         142.5583  142.9958  171.2713 O.3     1  UNL1       -0.4692
     16 C         138.7642  137.6851  163.0463 C.3     1  UNL1        0.1873
     17 O         137.8972  138.3811  162.0394 O.3     1  UNL1       -0.3497
     18 C         137.9351  139.8760  161.9228 C.3     1  UNL1        0.1197
     19 C         137.3879  141.0171  162.7282 C.3     1  UNL1        0.0548
     20 C         137.9888  141.9902  161.7578 C.3     1  UNL1        0.1179
     21 C         138.5360  140.8493  160.9524 C.3     1  UNL1        0.0548
     22 N         138.0268  143.4852  161.6411 N.2     1  UNL1       -0.2240
     23 C         139.1941  144.2509  162.1899 C.1     1  UNL1        0.0364
     24 S         140.3613  145.0166  162.7387 S.2     1  UNL1        0.0203
@<TRIPOS>BOND
     1    14    15    1
     2    15     7    1
     3     7     8   ar
     4     8     9   ar
     5     9    10   ar
     6    10     1    1
     7     1     2   ar
     8     2     3   ar
     9     3     4   ar
    10     4    16    1
    11    16    17    1
    12    18    17    1
    13    18    19    1
    14    19    20    1
    15    20    22    1
    16    22    23    2
    17    23    24    2
    18    20    21    1
    19     4     5   ar
    20     5     6   ar
    21    10    11   ar
    22    11    12   ar
    23    12    13    1
    24    12     7   ar
    25     6     1   ar
    26    21    18    1
@<TRIPOS>MOLECULE
*****
 24 26 0 0 0
SMALL
GASTEIGER

@<TRIPOS>ATOM
      1 C         139.2947  140.0611  165.6676 C.ar    1  UNL1        0.0192
      2 C         139.5171  138.5931  165.4545 C.ar    1  UNL1        0.0028
      3 C         139.1001  137.9507  164.1648 C.ar    1  UNL1        0.0173
      4 C         138.4606  138.7763  163.0881 C.ar    1  UNL1        0.0888
      5 N         138.2381  140.2443  163.3011 N.ar    1  UNL1       -0.2457
      6 C         138.6552  140.8867  164.5909 C.ar    1  UNL1        0.0985
      7 C         140.5458  141.9883  169.5368 C.ar    1  UNL1        0.1660
      8 C         140.7572  142.7078  168.2377 C.ar    1  UNL1        0.0392
      9 C         140.3402  142.0654  166.9480 C.ar    1  UNL1        0.0033
     10 C         139.7117  140.7035  166.9573 C.ar    1  UNL1        0.0039
     11 C         139.5003  139.9839  168.2563 C.ar    1  UNL1        0.0328
     12 C         139.9173  140.6263  169.5460 C.ar    1  UNL1        0.1738
     13 F         139.7059  139.9067  170.8451 F       1  UNL1       -0.2010
     14 C         142.4065  142.9577  171.0691 C.3     1  UNL1        0.2526
     15 O         140.9628  142.6307  170.8265 O.3     1  UNL1       -0.4692
     16 C         138.0436  138.1339  161.7984 C.3     1  UNL1        0.1873
     17 O         139.0394  137.9615  160.6900 O.3     1  UNL1       -0.3497
     18 C         140.4366  138.4835  160.8491 C.3     1  UNL1        0.1197
     19 C         141.0971  139.8183  160.6699 C.3     1  UNL1        0.0548
     20 C         142.4125  139.2216  161.0741 C.3     1  UNL1        0.1179
     21 C         141.7521  137.8869  161.2533 C.3     1  UNL1        0.0548
     22 N         143.8098  139.7435  161.2333 N.2     1  UNL1       -0.2240
     23 C         144.3398  140.0635  162.5996 C.1     1  UNL1        0.0364
     24 S         144.8699  140.3834  163.9658 S.2     1  UNL1        0.0203
@<TRIPOS>BOND
     1    14    15    1
     2    15     7    1
     3     7     8   ar
     4     8     9   ar
     5     9    10   ar
     6    10     1    1
     7     1     2   ar
     8     2     3   ar
     9     3     4   ar
    10     4    16    1
    11    16    17    1
    12    18    17    1
    13    18    19    1
    14    19    20    1
    15    20    22    1
    16    22    23    2
    17    23    24    2
    18    20    21    1
    19     4     5   ar
    20     5     6   ar
    21    10    11   ar
    22    11    12   ar
    23    12    13    1
    24    12     7   ar
    25     6     1   ar
    26    21    18    1
@<TRIPOS>MOLECULE
*****
 24 26 0 0 0
SMALL
GASTEIGER

@<TRIPOS>ATOM
      1 C         142.3927  139.0870  165.2928 C.ar    1  UNL1        0.0192
      2 C         141.5358  138.3700  164.2921 C.ar    1  UNL1        0.0028
      3 C         142.0915  138.0186  162.9439 C.ar    1  UNL1        0.0173
      4 C         143.5041  138.3842  162.5964 C.ar    1  UNL1        0.0888
      5 N         144.3611  139.1012  163.5972 N.ar    1  UNL1       -0.2457
      6 C         143.8053  139.4526  164.9454 C.ar    1  UNL1        0.0985
      7 C         140.7255  140.1413  169.3374 C.ar    1  UNL1        0.1660
      8 C         139.8427  140.1922  168.1259 C.ar    1  UNL1        0.0392
      9 C         140.3984  139.8408  166.7777 C.ar    1  UNL1        0.0033
     10 C         141.8370  139.4385  166.6410 C.ar    1  UNL1        0.0039
     11 C         142.7198  139.3876  167.8526 C.ar    1  UNL1        0.0328
     12 C         142.1641  139.7391  169.2008 C.ar    1  UNL1        0.1738
     13 F         143.0470  139.6882  170.4125 F       1  UNL1       -0.2010
     14 C         140.5716  141.7755  171.3514 C.3     1  UNL1        0.2526
     15 O         140.1698  140.4928  170.6857 O.3     1  UNL1       -0.4692
     16 C         144.0599  138.0327  161.2482 C.3     1  UNL1        0.1873
     17 O         143.8572  138.9617  160.0881 O.3     1  UNL1       -0.3497
     18 C         143.5849  140.4166  160.3310 C.3     1  UNL1        0.1197
     19 C         142.4224  141.3331  160.0885 C.3     1  UNL1        0.0548
     20 C         143.1998  142.4742  160.6744 C.3     1  UNL1        0.1179
     21 C         144.3623  141.5579  160.9169 C.3     1  UNL1        0.0548
     22 N         142.9275  143.9292  160.9173 N.2     1  UNL1       -0.2240
     23 C         142.6008  144.4104  162.3000 C.1     1  UNL1        0.0364
     24 S         142.2742  144.8917  163.6826 S.2     1  UNL1        0.0203
@<TRIPOS>BOND
     1    14    15    1
     2    15     7    1
     3     7     8   ar
     4     8     9   ar
     5     9    10   ar
     6    10     1    1
     7     1     2   ar
     8     2     3   ar
     9     3     4   ar
    10     4    16    1
    11    16    17    1
    12    18    17    1
    13    18    19    1
    14    19    20    1
    15    20    22    1
    16    22    23    2
    17    23    24    2
    18    20    21    1
    19     4     5   ar
    20     5     6   ar
    21    10    11   ar
    22    11    12   ar
    23    12    13    1
    24    12     7   ar
    25     6     1   ar
    26    21    18    1
@<TRIPOS>MOLECULE
*****
 24 26 0 0 0
SMALL
GASTEIGER

@<TRIPOS>ATOM
      1 C         140.3066  139.1290  164.9923 C.ar    1  UNL1        0.0192
      2 C         138.9149  138.7340  164.5959 C.ar    1  UNL1        0.0028
      3 C         138.6050  138.4162  163.1631 C.ar    1  UNL1        0.0173
      4 C         139.6866  138.4934  162.1268 C.ar    1  UNL1        0.0888
      5 N         141.0783  138.8884  162.5232 N.ar    1  UNL1       -0.2457
      6 C         141.3882  139.2063  163.9560 C.ar    1  UNL1        0.0985
      7 C         141.2364  140.0825  169.2907 C.ar    1  UNL1        0.1660
      8 C         142.3428  139.7104  168.3488 C.ar    1  UNL1        0.0392
      9 C         142.0329  139.3926  166.9160 C.ar    1  UNL1        0.0033
     10 C         140.6165  139.4469  166.4251 C.ar    1  UNL1        0.0039
     11 C         139.5101  139.8189  167.3671 C.ar    1  UNL1        0.0328
     12 C         139.8201  140.1368  168.7999 C.ar    1  UNL1        0.1738
     13 F         138.7136  140.5089  169.7419 F       1  UNL1       -0.2010
     14 C         141.4838  141.8186  171.2076 C.3     1  UNL1        0.2526
     15 O         141.5464  140.4003  170.7235 O.3     1  UNL1       -0.4692
     16 C         139.3767  138.1756  160.6940 C.3     1  UNL1        0.1873
     17 O         139.0849  139.2837  159.7261 O.3     1  UNL1       -0.3497
     18 C         138.9901  140.6993  160.2131 C.3     1  UNL1        0.1197
     19 C         138.0029  141.4745  161.0345 C.3     1  UNL1        0.0548
     20 C         138.8559  142.7012  160.9018 C.3     1  UNL1        0.1179
     21 C         139.8430  141.9260  160.0804 C.3     1  UNL1        0.0548
     22 N         138.7610  144.1168  161.3888 N.2     1  UNL1       -0.2240
     23 C         138.9541  144.4237  162.8444 C.1     1  UNL1        0.0364
     24 S         139.1471  144.7306  164.2998 S.2     1  UNL1        0.0203
@<TRIPOS>BOND
     1    14    15    1
     2    15     7    1
     3     7     8   ar
     4     8     9   ar
     5     9    10   ar
     6    10     1    1
     7     1     2   ar
     8     2     3   ar
     9     3     4   ar
    10     4    16    1
    11    16    17    1
    12    18    17    1
    13    18    19    1
    14    19    20    1
    15    20    22    1
    16    22    23    2
    17    23    24    2
    18    20    21    1
    19     4     5   ar
    20     5     6   ar
    21    10    11   ar
    22    11    12   ar
    23    12    13    1
    24    12     7   ar
    25     6     1   ar
    26    21    18    1
@<TRIPOS>MOLECULE
*****
 24 26 0 0 0
SMALL
GASTEIGER

@<TRIPOS>ATOM
      1 C         142.9318  139.4492  164.8087 C.ar    1  UNL1        0.0192
      2 C         143.9084  139.9946  163.8093 C.ar    1  UNL1        0.0028
      3 C         143.9753  139.4096  162.4297 C.ar    1  UNL1        0.0173
      4 C         143.0655  138.2793  162.0494 C.ar    1  UNL1        0.0888
      5 N         142.0889  137.7339  163.0488 N.ar    1  UNL1       -0.2457
      6 C         142.0220  138.3188  164.4284 C.ar    1  UNL1        0.0985
      7 C         142.7311  141.2041  168.9475 C.ar    1  UNL1        0.1660
      8 C         142.8835  142.1046  167.7577 C.ar    1  UNL1        0.0392
      9 C         142.9504  141.5196  166.3780 C.ar    1  UNL1        0.0033
     10 C         142.8649  140.0342  166.1883 C.ar    1  UNL1        0.0039
     11 C         142.7125  139.1337  167.3782 C.ar    1  UNL1        0.0328
     12 C         142.6456  139.7186  168.7578 C.ar    1  UNL1        0.1738
     13 F         142.4933  138.8180  169.9477 F       1  UNL1       -0.2010
     14 C         141.3639  141.8003  171.0748 C.3     1  UNL1        0.2526
     15 O         142.6642  141.7891  170.3271 O.3     1  UNL1       -0.4692
     16 C         143.1324  137.6943  160.6698 C.3     1  UNL1        0.1873
     17 O         142.1917  138.1749  159.6050 O.3     1  UNL1       -0.3497
     18 C         140.9074  138.8490  159.9873 C.3     1  UNL1        0.1197
     19 C         140.4478  140.2729  160.0943 C.3     1  UNL1        0.0548
     20 C         139.0912  139.8024  160.5281 C.3     1  UNL1        0.1179
     21 C         139.5508  138.3786  160.4211 C.3     1  UNL1        0.0548
     22 N         137.8069  140.4764  160.9104 N.2     1  UNL1       -0.2240
     23 C         137.7088  141.2224  162.2082 C.1     1  UNL1        0.0364
     24 S         137.6107  141.9683  163.5058 S.2     1  UNL1        0.0203
@<TRIPOS>BOND
     1    14    15    1
     2    15     7    1
     3     7     8   ar
     4     8     9   ar
     5     9    10   ar
     6    10     1    1
     7     1     2   ar
     8     2     3   ar
     9     3     4   ar
    10     4    16    1
    11    16    17    1
    12    18    17    1
    13    18    19    1
    14    19    20    1
    15    20    22    1
    16    22    23    2
    17    23    24    2
    18    20    21    1
    19     4     5   ar
    20     5     6   ar
    21    10    11   ar
    22    11    12   ar
    23    12    13    1
    24    12     7   ar
    25     6     1   ar
    26    21    18    1
@<TRIPOS>MOLECULE
*****
 24 26 0 0 0
SMALL
GASTEIGER

@<TRIPOS>ATOM
      1 C         139.5482  139.4033  165.2624 C.ar    1  UNL1        0.0192
      2 C         139.5268  138.0146  164.6958 C.ar    1  UNL1        0.0028
      3 C         138.9482  137.7692  163.3338 C.ar    1  UNL1        0.0173
      4 C         138.3911  138.9124  162.5384 C.ar    1  UNL1        0.0888
      5 N         138.4126  140.3011  163.1051 N.ar    1  UNL1       -0.2457
      6 C         138.9911  140.5465  164.4671 C.ar    1  UNL1        0.0985
      7 C         141.2837  140.1395  169.3485 C.ar    1  UNL1        0.1660
      8 C         142.1912  139.8595  168.1875 C.ar    1  UNL1        0.0392
      9 C         141.6127  139.6141  166.8255 C.ar    1  UNL1        0.0033
     10 C         140.1267  139.6487  166.6245 C.ar    1  UNL1        0.0039
     11 C         139.2192  139.9287  167.7855 C.ar    1  UNL1        0.0328
     12 C         139.7977  140.1741  169.1475 C.ar    1  UNL1        0.1738
     13 F         138.8901  140.4541  170.3085 F       1  UNL1       -0.2010
     14 C         141.8006  141.7560  171.3156 C.3     1  UNL1        0.2526
     15 O         141.8622  140.3849  170.7105 O.3     1  UNL1       -0.4692
     16 C         137.8126  138.6670  161.1764 C.3     1  UNL1        0.1873
     17 O         138.3638  139.3935  159.9854 O.3     1  UNL1       -0.3497
     18 C         139.6694  138.9652  159.3838 C.3     1  UNL1        0.1197
     19 C         140.9692  138.4498  159.9268 C.3     1  UNL1        0.0548
     20 C         141.5157  138.3596  158.5329 C.3     1  UNL1        0.1179
     21 C         140.2160  138.8749  157.9898 C.3     1  UNL1        0.0548
     22 N         142.8213  137.9313  157.9312 N.2     1  UNL1       -0.2240
     23 C         142.9482  136.5757  157.3015 C.1     1  UNL1        0.0364
     24 S         143.0750  135.2202  156.6719 S.2     1  UNL1        0.0203
@<TRIPOS>BOND
     1    14    15    1
     2    15     7    1
     3     7     8   ar
     4     8     9   ar
     5     9    10   ar
     6    10     1    1
     7     1     2   ar
     8     2     3   ar
     9     3     4   ar
    10     4    16    1
    11    16    17    1
    12    18    17    1
    13    18    19    1
    14    19    20    1
    15    20    22    1
    16    22    23    2
    17    23    24    2
    18    20    21    1
    19     4     5   ar
    20     5     6   ar
    21    10    11   ar
    22    11    12   ar
    23    12    13    1
    24    12     7   ar
    25     6     1   ar
    26    21    18    1
@<TRIPOS>MOLECULE
*****
 24 26 0 0 0
SMALL
GASTEIGER

@<TRIPOS>ATOM
      1 C         143.1112  142.5654  164.8759 C.ar    1  UNL1        0.0192
      2 C         143.6831  143.8412  164.3326 C.ar    1  UNL1        0.0028
      3 C         144.1743  143.8998  162.9165 C.ar    1  UNL1        0.0173
      4 C         144.0935  142.6826  162.0437 C.ar    1  UNL1        0.0888
      5 N         143.5216  141.4068  162.5870 N.ar    1  UNL1       -0.2457
      6 C         143.0305  141.3482  164.0031 C.ar    1  UNL1        0.0985
      7 C         141.6377  142.3897  169.1242 C.ar    1  UNL1        0.1660
      8 C         140.6564  142.4736  167.9928 C.ar    1  UNL1        0.0392
      9 C         141.1476  142.5321  166.5768 C.ar    1  UNL1        0.0033
     10 C         142.6201  142.5068  166.2920 C.ar    1  UNL1        0.0039
     11 C         143.6014  142.4230  167.4233 C.ar    1  UNL1        0.0328
     12 C         143.1102  142.3644  168.8394 C.ar    1  UNL1        0.1738
     13 F         144.0916  142.2805  169.9708 F       1  UNL1       -0.2010
     14 C         140.9291  141.0039  171.2044 C.3     1  UNL1        0.2526
     15 O         141.1466  142.3311  170.5403 O.3     1  UNL1       -0.4692
     16 C         144.5847  142.7411  160.6276 C.3     1  UNL1        0.1873
     17 O         143.6270  143.0439  159.5135 O.3     1  UNL1       -0.3497
     18 C         142.1523  143.0893  159.7837 C.3     1  UNL1        0.1197
     19 C         141.0529  142.0704  159.8426 C.3     1  UNL1        0.0548
     20 C         140.0667  143.1534  160.1659 C.3     1  UNL1        0.1179
     21 C         141.1660  144.1722  160.1070 C.3     1  UNL1        0.0548
     22 N         138.5919  143.1988  160.4361 N.2     1  UNL1       -0.2240
     23 C         138.0460  142.6358  161.7149 C.1     1  UNL1        0.0364
     24 S         137.5002  142.0727  162.9935 S.2     1  UNL1        0.0203
@<TRIPOS>BOND
     1    14    15    1
     2    15     7    1
     3     7     8   ar
     4     8     9   ar
     5     9    10   ar
     6    10     1    1
     7     1     2   ar
     8     2     3   ar
     9     3     4   ar
    10     4    16    1
    11    16    17    1
    12    18    17    1
    13    18    19    1
    14    19    20    1
    15    20    22    1
    16    22    23    2
    17    23    24    2
    18    20    21    1
    19     4     5   ar
    20     5     6   ar
    21    10    11   ar
    22    11    12   ar
    23    12    13    1
    24    12     7   ar
    25     6     1   ar
    26    21    18    1
@<TRIPOS>MOLECULE
*****
 24 26 0 0 0
SMALL
GASTEIGER

@<TRIPOS>ATOM
      1 C         140.0482  138.4337  162.7809 C.ar    1  UNL1        0.0192
      2 C         140.1355  137.3699  163.8347 C.ar    1  UNL1        0.0028
      3 C         139.3643  137.5154  165.1130 C.ar    1  UNL1        0.0173
      4 C         138.5057  138.7247  165.3375 C.ar    1  UNL1        0.0888
      5 N         138.4184  139.7885  164.2837 N.ar    1  UNL1       -0.2457
      6 C         139.1896  139.6430  163.0054 C.ar    1  UNL1        0.0985
      7 C         142.3618  137.9972  158.9460 C.ar    1  UNL1        0.1660
      8 C         143.0099  137.6586  160.2556 C.ar    1  UNL1        0.0392
      9 C         142.2387  137.8041  161.5339 C.ar    1  UNL1        0.0033
     10 C         140.8194  138.2882  161.5026 C.ar    1  UNL1        0.0039
     11 C         140.1713  138.6269  160.1929 C.ar    1  UNL1        0.0328
     12 C         140.9425  138.4814  158.9146 C.ar    1  UNL1        0.1738
     13 F         140.2943  138.8200  157.6050 F       1  UNL1       -0.2010
     14 C         142.8944  136.6676  156.7784 C.3     1  UNL1        0.2526
     15 O         143.1330  137.8518  157.6677 O.3     1  UNL1       -0.4692
     16 C         137.7345  138.8701  166.6158 C.3     1  UNL1        0.1873
     17 O         138.4586  139.1331  167.9028 O.3     1  UNL1       -0.3497
     18 C         139.6696  140.0182  167.9148 C.3     1  UNL1        0.1197
     19 C         140.8598  140.1995  167.0200 C.3     1  UNL1        0.0548
     20 C         141.3821  141.2700  167.9317 C.3     1  UNL1        0.1179
     21 C         140.1920  141.0887  168.8264 C.3     1  UNL1        0.0548
     22 N         142.5930  142.1551  167.9437 N.2     1  UNL1       -0.2240
     23 C         143.2764  142.5085  166.6560 C.1     1  UNL1        0.0364
     24 S         143.9598  142.8620  165.3683 S.2     1  UNL1        0.0203
@<TRIPOS>BOND
     1    14    15    1
     2    15     7    1
     3     7     8   ar
     4     8     9   ar
     5     9    10   ar
     6    10     1    1
     7     1     2   ar
     8     2     3   ar
     9     3     4   ar
    10     4    16    1
    11    16    17    1
    12    18    17    1
    13    18    19    1
    14    19    20    1
    15    20    22    1
    16    22    23    2
    17    23    24    2
    18    20    21    1
    19     4     5   ar
    20     5     6   ar
    21    10    11   ar
    22    11    12   ar
    23    12    13    1
    24    12     7   ar
    25     6     1   ar
    26    21    18    1
