@<TRIPOS>MOLECULE
*****
 32 37 0 0 0
SMALL
GASTEIGER

@<TRIPOS>ATOM
      1 N         141.3757  139.1304  158.8582 N.pl3   1  UNL1       -0.3074
      2 C         141.2591  140.5547  158.4023 C.3     1  UNL1        0.0908
      3 C         141.1904  141.6621  159.4117 C.3     1  UNL1        0.0237
      4 C         141.2383  141.3452  160.8771 C.3     1  UNL1        0.0285
      5 C         141.3549  139.9209  161.3330 C.3     1  UNL1        0.0237
      6 C         141.4236  138.8135  160.3236 C.3     1  UNL1        0.0908
      7 C         141.1696  142.4526  161.8865 C.3     1  UNL1        0.1117
      8 C         139.9702  142.8245  162.7071 C.ar    1  UNL1        0.0272
      9 C         138.5833  142.2568  162.7720 C.ar    1  UNL1        0.1379
     10 F         138.2060  141.0971  161.8988 F       1  UNL1       -0.2044
     11 C         137.5737  142.8490  163.7102 C.ar    1  UNL1        0.0294
     12 C         137.9511  144.0088  164.5834 C.ar    1  UNL1        0.0023
     13 C         139.3380  144.5764  164.5185 C.ar    1  UNL1        0.0014
     14 C         140.3476  143.9843  163.5804 C.ar    1  UNL1        0.0173
     15 C         141.7801  144.3292  163.2995 C.ar    1  UNL1        0.0804
     16 C         142.8987  145.2592  163.6655 C.ar    1  UNL1        0.1178
     17 N         144.0980  144.8873  162.8449 N.ar    1  UNL1       -0.2223
     18 C         143.7206  143.7275  161.9717 C.ar    1  UNL1        0.1788
     19 N         142.2881  143.3826  162.2526 N.ar    1  UNL1       -0.3069
     20 C         141.5817  135.8083  155.8298 C.ar    1  UNL1        0.0306
     21 C         140.3643  136.6814  155.9037 C.ar    1  UNL1        0.0036
     22 C         140.2956  137.7888  156.9131 C.ar    1  UNL1        0.0147
     23 C         141.4444  138.0231  157.8487 C.ar    1  UNL1        0.0501
     24 C         142.6619  137.1499  157.7749 C.ar    1  UNL1        0.0441
     25 C         142.7306  136.0426  156.7655 C.ar    1  UNL1        0.1414
     26 F         143.9480  135.1695  156.6917 F       1  UNL1       -0.2041
     27 C         141.3745  131.0271  153.5986 C.3     1  UNL1        0.1538
     28 N         141.5552  132.5033  153.7948 N.ar    1  UNL1       -0.2473
     29 C         141.3657  133.2515  155.0810 C.ar    1  UNL1        0.0967
     30 C         141.6504  134.7009  154.8204 C.ar    1  UNL1        0.0418
     31 C         142.0160  134.8487  153.3731 C.ar    1  UNL1        0.1217
     32 N         141.9571  133.4904  152.7393 N.ar    1  UNL1       -0.1676
@<TRIPOS>BOND
     1    27    28    1
     2    28    29   ar
     3    29    30   ar
     4    30    20    1
     5    20    21   ar
     6    21    22   ar
     7    22    23   ar
     8    23     1    1
     9     1     2    1
    10     2     3    1
    11     3     4    1
    12     4     7    1
    13     7     8    1
    14     8     9   ar
    15     9    10    1
    16     9    11   ar
    17    11    12   ar
    18    12    13   ar
    19    13    14   ar
    20    14    15    1
    21    15    16   ar
    22    16    17   ar
    23    17    18   ar
    24    18    19   ar
    25     4     5    1
    26     5     6    1
    27    23    24   ar
    28    24    25   ar
    29    25    26    1
    30    30    31   ar
    31    31    32   ar
    32    32    28   ar
    33    25    20   ar
    34     6     1    1
    35    19     7    1
    36    14     8   ar
    37    19    15   ar
@<TRIPOS>MOLECULE
*****
 32 37 0 0 0
SMALL
GASTEIGER

@<TRIPOS>ATOM
      1 N         141.2523  139.0561  158.5374 N.pl3   1  UNL1       -0.3074
      2 C         141.2633  138.8016  160.0156 C.3     1  UNL1        0.0908
      3 C         141.1431  139.9484  160.9750 C.3     1  UNL1        0.0237
      4 C         141.0119  141.3497  160.4563 C.3     1  UNL1        0.0285
      5 C         141.0008  141.6042  158.9780 C.3     1  UNL1        0.0237
      6 C         141.1210  140.4575  158.0186 C.3     1  UNL1        0.0908
      7 C         140.8917  142.4964  161.4157 C.3     1  UNL1        0.1117
      8 C         142.0307  143.2528  162.0328 C.ar    1  UNL1        0.0272
      9 C         143.5181  143.1137  161.8977 C.ar    1  UNL1        0.1379
     10 F         144.0944  142.0546  161.0056 F       1  UNL1       -0.2044
     11 C         144.4292  144.0341  162.6547 C.ar    1  UNL1        0.0294
     12 C         143.8528  145.0932  163.5468 C.ar    1  UNL1        0.0023
     13 C         142.3654  145.2322  163.6820 C.ar    1  UNL1        0.0014
     14 C         141.4543  144.3120  162.9250 C.ar    1  UNL1        0.0173
     15 C         139.9592  144.2103  162.8592 C.ar    1  UNL1        0.0804
     16 C         138.6790  144.8021  163.3700 C.ar    1  UNL1        0.1178
     17 N         137.5401  144.0458  162.7528 N.ar    1  UNL1       -0.2223
     18 C         138.1164  142.9866  161.8607 C.ar    1  UNL1        0.1788
     19 N         139.6115  143.0882  161.9264 N.ar    1  UNL1       -0.3069
     20 C         141.6128  135.6158  155.6592 C.ar    1  UNL1        0.0306
     21 C         140.3512  136.4258  155.7056 C.ar    1  UNL1        0.0036
     22 C         140.2310  137.5725  156.6650 C.ar    1  UNL1        0.0147
     23 C         141.3725  137.9094  157.5780 C.ar    1  UNL1        0.0501
     24 C         142.6342  137.0994  157.5316 C.ar    1  UNL1        0.0441
     25 C         142.7544  135.9526  156.5722 C.ar    1  UNL1        0.1414
     26 F         144.0160  135.1427  156.5258 F       1  UNL1       -0.2041
     27 C         141.8239  130.7251  153.6801 C.3     1  UNL1        0.1538
     28 N         141.8300  132.2211  153.7901 N.ar    1  UNL1       -0.2473
     29 C         141.6614  133.0130  155.0528 C.ar    1  UNL1        0.0967
     30 C         141.7330  134.4691  154.6998 C.ar    1  UNL1        0.0418
     31 C         141.9459  134.5772  153.2189 C.ar    1  UNL1        0.1217
     32 N         142.0059  133.1878  152.6567 N.ar    1  UNL1       -0.1676
@<TRIPOS>BOND
     1    27    28    1
     2    28    29   ar
     3    29    30   ar
     4    30    20    1
     5    20    21   ar
     6    21    22   ar
     7    22    23   ar
     8    23     1    1
     9     1     2    1
    10     2     3    1
    11     3     4    1
    12     4     7    1
    13     7     8    1
    14     8     9   ar
    15     9    10    1
    16     9    11   ar
    17    11    12   ar
    18    12    13   ar
    19    13    14   ar
    20    14    15    1
    21    15    16   ar
    22    16    17   ar
    23    17    18   ar
    24    18    19   ar
    25     4     5    1
    26     5     6    1
    27    23    24   ar
    28    24    25   ar
    29    25    26    1
    30    30    31   ar
    31    31    32   ar
    32    32    28   ar
    33    25    20   ar
    34     6     1    1
    35    19     7    1
    36    14     8   ar
    37    19    15   ar
@<TRIPOS>MOLECULE
*****
 32 37 0 0 0
SMALL
GASTEIGER

@<TRIPOS>ATOM
      1 N         139.5753  143.6153  158.8008 N.pl3   1  UNL1       -0.3074
      2 C         138.9655  143.3197  157.4627 C.3     1  UNL1        0.0908
      3 C         139.1499  144.2806  156.3257 C.3     1  UNL1        0.0237
      4 C         139.9442  145.5370  156.5268 C.3     1  UNL1        0.0285
      5 C         140.5541  145.8327  157.8650 C.3     1  UNL1        0.0237
      6 C         140.3697  144.8718  159.0020 C.3     1  UNL1        0.0908
      7 C         140.1286  146.4979  155.3898 C.3     1  UNL1        0.1117
      8 C         139.6333  147.9130  155.3422 C.ar    1  UNL1        0.0272
      9 C         138.8651  148.7413  156.3290 C.ar    1  UNL1        0.1379
     10 F         138.4591  148.1523  157.6473 F       1  UNL1       -0.2044
     11 C         138.5029  150.1586  155.9973 C.ar    1  UNL1        0.0294
     12 C         138.9089  150.7476  154.6789 C.ar    1  UNL1        0.0023
     13 C         139.6771  149.9193  153.6921 C.ar    1  UNL1        0.0014
     14 C         140.0393  148.5020  154.0237 C.ar    1  UNL1        0.0173
     15 C         140.7855  147.4510  153.2566 C.ar    1  UNL1        0.0804
     16 C         141.4976  147.1655  151.9676 C.ar    1  UNL1        0.1178
     17 N         141.9929  145.7504  152.0153 N.ar    1  UNL1       -0.2223
     18 C         141.5869  145.1614  153.3337 C.ar    1  UNL1        0.1788
     19 N         140.8407  146.2124  154.1009 N.ar    1  UNL1       -0.3069
     20 C         139.0221  140.7328  162.2118 C.ar    1  UNL1        0.0306
     21 C         138.3081  140.5034  160.9127 C.ar    1  UNL1        0.0036
     22 C         138.4926  141.4643  159.7757 C.ar    1  UNL1        0.0147
     23 C         139.3909  142.6545  159.9378 C.ar    1  UNL1        0.0501
     24 C         140.1049  142.8839  161.2369 C.ar    1  UNL1        0.0441
     25 C         139.9205  141.9230  162.3739 C.ar    1  UNL1        0.1414
     26 F         140.6344  142.1524  163.6730 F       1  UNL1       -0.2041
     27 C         137.8029  138.7211  166.9391 C.3     1  UNL1        0.1538
     28 N         138.2773  138.8473  165.5216 N.ar    1  UNL1       -0.2473
     29 C         138.2817  140.1035  164.7019 C.ar    1  UNL1        0.0967
     30 C         138.8376  139.7719  163.3488 C.ar    1  UNL1        0.0418
     31 C         139.1768  138.3109  163.3321 C.ar    1  UNL1        0.1217
     32 N         138.8305  137.7394  164.6751 N.ar    1  UNL1       -0.1676
@<TRIPOS>BOND
     1    27    28    1
     2    28    29   ar
     3    29    30   ar
     4    30    20    1
     5    20    21   ar
     6    21    22   ar
     7    22    23   ar
     8    23     1    1
     9     1     2    1
    10     2     3    1
    11     3     4    1
    12     4     7    1
    13     7     8    1
    14     8     9   ar
    15     9    10    1
    16     9    11   ar
    17    11    12   ar
    18    12    13   ar
    19    13    14   ar
    20    14    15    1
    21    15    16   ar
    22    16    17   ar
    23    17    18   ar
    24    18    19   ar
    25     4     5    1
    26     5     6    1
    27    23    24   ar
    28    24    25   ar
    29    25    26    1
    30    30    31   ar
    31    31    32   ar
    32    32    28   ar
    33    25    20   ar
    34     6     1    1
    35    19     7    1
    36    14     8   ar
    37    19    15   ar
@<TRIPOS>MOLECULE
*****
 32 37 0 0 0
SMALL
GASTEIGER

@<TRIPOS>ATOM
      1 N         143.0113  141.1975  161.7282 N.pl3   1  UNL1       -0.3074
      2 C         143.4437  140.0745  162.6235 C.3     1  UNL1        0.0908
      3 C         142.7901  139.8870  163.9605 C.3     1  UNL1        0.0237
      4 C         141.7042  140.8227  164.4023 C.3     1  UNL1        0.0285
      5 C         141.2717  141.9458  163.5069 C.3     1  UNL1        0.0237
      6 C         141.9253  142.1333  162.1699 C.3     1  UNL1        0.0908
      7 C         141.0506  140.6353  165.7393 C.3     1  UNL1        0.1117
      8 C         141.5603  141.1558  167.0506 C.ar    1  UNL1        0.0272
      9 C         142.7769  141.9572  167.4077 C.ar    1  UNL1        0.1379
     10 F         143.7399  142.3763  166.3368 F       1  UNL1       -0.2044
     11 C         143.0305  142.3395  168.8359 C.ar    1  UNL1        0.0294
     12 C         142.0675  141.9203  169.9068 C.ar    1  UNL1        0.0023
     13 C         140.8509  141.1189  169.5497 C.ar    1  UNL1        0.0014
     14 C         140.5973  140.7366  168.1215 C.ar    1  UNL1        0.0173
     15 C         139.4924  139.9571  167.4722 C.ar    1  UNL1        0.0804
     16 C         138.2144  139.2163  167.7328 C.ar    1  UNL1        0.1178
     17 N         137.7047  138.6959  166.4216 N.ar    1  UNL1       -0.2223
     18 C         138.6677  139.1150  165.3506 C.ar    1  UNL1        0.1788
     19 N         139.7726  139.8945  165.9999 N.ar    1  UNL1       -0.3069
     20 C         144.9720  141.7598  157.7170 C.ar    1  UNL1        0.0306
     21 C         145.1657  142.7831  158.7965 C.ar    1  UNL1        0.0036
     22 C         144.5121  142.5956  160.1336 C.ar    1  UNL1        0.0147
     23 C         143.6649  141.3850  160.3911 C.ar    1  UNL1        0.0501
     24 C         143.4712  140.3616  159.3116 C.ar    1  UNL1        0.0441
     25 C         144.1247  140.5490  157.9745 C.ar    1  UNL1        0.1414
     26 F         143.9311  139.5258  156.8950 F       1  UNL1       -0.2041
     27 C         148.6260  142.3880  153.9574 C.3     1  UNL1        0.1538
     28 N         147.3051  142.2360  154.6519 N.ar    1  UNL1       -0.2473
     29 C         147.0999  142.0579  156.1271 C.ar    1  UNL1        0.0967
     30 C         145.6256  141.9472  156.3799 C.ar    1  UNL1        0.0418
     31 C         144.9194  142.0568  155.0611 C.ar    1  UNL1        0.1217
     32 N         145.9575  142.2353  153.9931 N.ar    1  UNL1       -0.1676
@<TRIPOS>BOND
     1    27    28    1
     2    28    29   ar
     3    29    30   ar
     4    30    20    1
     5    20    21   ar
     6    21    22   ar
     7    22    23   ar
     8    23     1    1
     9     1     2    1
    10     2     3    1
    11     3     4    1
    12     4     7    1
    13     7     8    1
    14     8     9   ar
    15     9    10    1
    16     9    11   ar
    17    11    12   ar
    18    12    13   ar
    19    13    14   ar
    20    14    15    1
    21    15    16   ar
    22    16    17   ar
    23    17    18   ar
    24    18    19   ar
    25     4     5    1
    26     5     6    1
    27    23    24   ar
    28    24    25   ar
    29    25    26    1
    30    30    31   ar
    31    31    32   ar
    32    32    28   ar
    33    25    20   ar
    34     6     1    1
    35    19     7    1
    36    14     8   ar
    37    19    15   ar
@<TRIPOS>MOLECULE
*****
 32 37 0 0 0
SMALL
GASTEIGER

@<TRIPOS>ATOM
      1 N         141.8449  138.9726  158.5756 N.pl3   1  UNL1       -0.3074
      2 C         142.7591  140.1276  158.2926 C.3     1  UNL1        0.0908
      3 C         142.8025  141.2971  159.2309 C.3     1  UNL1        0.0237
      4 C         141.9317  141.3116  160.4521 C.3     1  UNL1        0.0285
      5 C         141.0174  140.1566  160.7351 C.3     1  UNL1        0.0237
      6 C         140.9740  138.9871  159.7968 C.3     1  UNL1        0.0908
      7 C         141.9751  142.4812  161.3903 C.3     1  UNL1        0.1117
      8 C         142.9463  142.6717  162.5175 C.ar    1  UNL1        0.0272
      9 C         144.0807  141.8277  163.0185 C.ar    1  UNL1        0.1379
     10 F         144.4006  140.5257  162.3461 F       1  UNL1       -0.2044
     11 C         144.8951  142.2859  164.1919 C.ar    1  UNL1        0.0294
     12 C         144.5751  143.5880  164.8643 C.ar    1  UNL1        0.0023
     13 C         143.4407  144.4320  164.3633 C.ar    1  UNL1        0.0014
     14 C         142.6263  143.9738  163.1899 C.ar    1  UNL1        0.0173
     15 C         141.4574  144.5880  162.4784 C.ar    1  UNL1        0.0804
     16 C         140.5372  145.7724  162.4542 C.ar    1  UNL1        0.1178
     17 N         139.5660  145.5819  161.3270 N.ar    1  UNL1       -0.2223
     18 C         139.8860  144.2798  160.6546 C.ar    1  UNL1        0.1788
     19 N         141.0549  143.6655  161.3662 N.ar    1  UNL1       -0.3069
     20 C         141.7148  135.4640  155.7608 C.ar    1  UNL1        0.0306
     21 C         142.8319  135.5876  156.7542 C.ar    1  UNL1        0.0036
     22 C         142.8752  136.7571  157.6924 C.ar    1  UNL1        0.0147
     23 C         141.8015  137.8030  157.6373 C.ar    1  UNL1        0.0501
     24 C         140.6843  137.6795  156.6440 C.ar    1  UNL1        0.0441
     25 C         140.6410  136.5100  155.7057 C.ar    1  UNL1        0.1414
     26 F         139.5239  136.3864  154.7124 F       1  UNL1       -0.2041
     27 C         141.1119  130.5788  153.8496 C.3     1  UNL1        0.1538
     28 N         141.3943  132.0490  153.9441 N.ar    1  UNL1       -0.2473
     29 C         141.3056  132.8859  155.1859 C.ar    1  UNL1        0.0967
     30 C         141.6714  134.2944  154.8226 C.ar    1  UNL1        0.0418
     31 C         141.9862  134.3283  153.3564 C.ar    1  UNL1        0.1217
     32 N         141.8149  132.9405  152.8135 N.ar    1  UNL1       -0.1676
@<TRIPOS>BOND
     1    27    28    1
     2    28    29   ar
     3    29    30   ar
     4    30    20    1
     5    20    21   ar
     6    21    22   ar
     7    22    23   ar
     8    23     1    1
     9     1     2    1
    10     2     3    1
    11     3     4    1
    12     4     7    1
    13     7     8    1
    14     8     9   ar
    15     9    10    1
    16     9    11   ar
    17    11    12   ar
    18    12    13   ar
    19    13    14   ar
    20    14    15    1
    21    15    16   ar
    22    16    17   ar
    23    17    18   ar
    24    18    19   ar
    25     4     5    1
    26     5     6    1
    27    23    24   ar
    28    24    25   ar
    29    25    26    1
    30    30    31   ar
    31    31    32   ar
    32    32    28   ar
    33    25    20   ar
    34     6     1    1
    35    19     7    1
    36    14     8   ar
    37    19    15   ar
@<TRIPOS>MOLECULE
*****
 32 37 0 0 0
SMALL
GASTEIGER

@<TRIPOS>ATOM
      1 N         141.1591  138.9980  159.7781 N.pl3   1  UNL1       -0.3074
      2 C         141.7606  140.3701  159.8533 C.3     1  UNL1        0.0908
      3 C         141.6415  141.1731  161.1146 C.3     1  UNL1        0.0237
      4 C         140.9209  140.6042  162.3007 C.3     1  UNL1        0.0285
      5 C         140.3194  139.2321  162.2256 C.3     1  UNL1        0.0237
      6 C         140.4385  138.4290  160.9643 C.3     1  UNL1        0.0908
      7 C         140.8018  141.4072  163.5620 C.3     1  UNL1        0.1117
      8 C         139.7923  142.4841  163.8297 C.ar    1  UNL1        0.0272
      9 C         138.6813  143.0482  162.9946 C.ar    1  UNL1        0.1379
     10 F         138.4358  142.5155  161.6142 F       1  UNL1       -0.2044
     11 C         137.8158  144.1453  163.5402 C.ar    1  UNL1        0.0294
     12 C         138.0614  144.6780  164.9207 C.ar    1  UNL1        0.0023
     13 C         139.1724  144.1138  165.7557 C.ar    1  UNL1        0.0014
     14 C         140.0379  143.0168  165.2102 C.ar    1  UNL1        0.0173
     15 C         141.1991  142.2693  165.7958 C.ar    1  UNL1        0.0804
     16 C         142.0685  142.1366  167.0110 C.ar    1  UNL1        0.1178
     17 N         143.0779  141.0599  166.7433 N.ar    1  UNL1       -0.2223
     18 C         142.8323  140.5271  165.3628 C.ar    1  UNL1        0.1788
     19 N         141.6712  141.2746  164.7772 N.ar    1  UNL1       -0.3069
     20 C         141.5165  136.5888  155.9942 C.ar    1  UNL1        0.0306
     21 C         142.7251  136.8231  156.8511 C.ar    1  UNL1        0.0036
     22 C         142.6060  137.6262  158.1124 C.ar    1  UNL1        0.0147
     23 C         141.2782  138.1950  158.5168 C.ar    1  UNL1        0.0501
     24 C         140.0695  137.9607  157.6599 C.ar    1  UNL1        0.0441
     25 C         140.1886  137.1576  156.3986 C.ar    1  UNL1        0.1414
     26 F         138.9800  136.9233  155.5417 F       1  UNL1       -0.2041
     27 C         142.0885  132.5391  152.6545 C.3     1  UNL1        0.1538
     28 N         141.8985  133.9243  153.1979 N.ar    1  UNL1       -0.2473
     29 C         141.8344  134.3015  154.6483 C.ar    1  UNL1        0.0967
     30 C         141.6356  135.7857  154.7329 C.ar    1  UNL1        0.0418
     31 C         141.5767  136.3261  153.3349 C.ar    1  UNL1        0.1217
     32 N         141.7392  135.1756  152.3862 N.ar    1  UNL1       -0.1676
@<TRIPOS>BOND
     1    27    28    1
     2    28    29   ar
     3    29    30   ar
     4    30    20    1
     5    20    21   ar
     6    21    22   ar
     7    22    23   ar
     8    23     1    1
     9     1     2    1
    10     2     3    1
    11     3     4    1
    12     4     7    1
    13     7     8    1
    14     8     9   ar
    15     9    10    1
    16     9    11   ar
    17    11    12   ar
    18    12    13   ar
    19    13    14   ar
    20    14    15    1
    21    15    16   ar
    22    16    17   ar
    23    17    18   ar
    24    18    19   ar
    25     4     5    1
    26     5     6    1
    27    23    24   ar
    28    24    25   ar
    29    25    26    1
    30    30    31   ar
    31    31    32   ar
    32    32    28   ar
    33    25    20   ar
    34     6     1    1
    35    19     7    1
    36    14     8   ar
    37    19    15   ar
@<TRIPOS>MOLECULE
*****
 32 37 0 0 0
SMALL
GASTEIGER

@<TRIPOS>ATOM
      1 N         143.2767  141.1964  161.8363 N.pl3   1  UNL1       -0.3074
      2 C         143.7971  139.8578  161.4035 C.3     1  UNL1        0.0908
      3 C         144.0886  139.5991  159.9550 C.3     1  UNL1        0.0237
      4 C         143.8598  140.6789  158.9394 C.3     1  UNL1        0.0285
      5 C         143.3394  142.0176  159.3722 C.3     1  UNL1        0.0237
      6 C         143.0479  142.2764  160.8207 C.3     1  UNL1        0.0908
      7 C         144.1513  140.4201  157.4909 C.3     1  UNL1        0.1117
      8 C         145.1915  141.1150  156.6631 C.ar    1  UNL1        0.0272
      9 C         146.1813  142.1928  156.9927 C.ar    1  UNL1        0.1379
     10 F         146.2358  142.7624  158.3792 F       1  UNL1       -0.2044
     11 C         147.1165  142.7010  155.9357 C.ar    1  UNL1        0.0294
     12 C         147.0619  142.1314  154.5492 C.ar    1  UNL1        0.0023
     13 C         146.0721  141.0536  154.2196 C.ar    1  UNL1        0.0014
     14 C         145.1369  140.5454  155.2765 C.ar    1  UNL1        0.0173
     15 C         144.0631  139.4985  155.2474 C.ar    1  UNL1        0.0804
     16 C         143.3657  138.4994  154.3724 C.ar    1  UNL1        0.1178
     17 N         142.3256  137.8046  155.2003 N.ar    1  UNL1       -0.2223
     18 C         142.3801  138.3742  156.5869 C.ar    1  UNL1        0.1788
     19 N         143.4540  139.4211  156.6160 N.ar    1  UNL1       -0.3069
     20 C         142.4021  141.9728  166.1817 C.ar    1  UNL1        0.0306
     21 C         141.5084  141.0675  165.3869 C.ar    1  UNL1        0.0036
     22 C         141.8000  140.8087  163.9384 C.ar    1  UNL1        0.0147
     23 C         142.9852  141.4552  163.2848 C.ar    1  UNL1        0.0501
     24 C         143.8789  142.3605  164.0796 C.ar    1  UNL1        0.0441
     25 C         143.5874  142.6193  165.5281 C.ar    1  UNL1        0.1414
     26 F         144.4811  143.5245  166.3229 F       1  UNL1       -0.2041
     27 C         139.8635  143.1327  170.6640 C.3     1  UNL1        0.1538
     28 N         140.9437  142.7647  169.6904 N.ar    1  UNL1       -0.2473
     29 C         140.7771  142.6020  168.2086 C.ar    1  UNL1        0.0967
     30 C         142.1106  142.2315  167.6302 C.ar    1  UNL1        0.0418
     31 C         143.1014  142.1652  168.7544 C.ar    1  UNL1        0.1217
     32 N         142.3801  142.4948  170.0277 N.ar    1  UNL1       -0.1676
@<TRIPOS>BOND
     1    27    28    1
     2    28    29   ar
     3    29    30   ar
     4    30    20    1
     5    20    21   ar
     6    21    22   ar
     7    22    23   ar
     8    23     1    1
     9     1     2    1
    10     2     3    1
    11     3     4    1
    12     4     7    1
    13     7     8    1
    14     8     9   ar
    15     9    10    1
    16     9    11   ar
    17    11    12   ar
    18    12    13   ar
    19    13    14   ar
    20    14    15    1
    21    15    16   ar
    22    16    17   ar
    23    17    18   ar
    24    18    19   ar
    25     4     5    1
    26     5     6    1
    27    23    24   ar
    28    24    25   ar
    29    25    26    1
    30    30    31   ar
    31    31    32   ar
    32    32    28   ar
    33    25    20   ar
    34     6     1    1
    35    19     7    1
    36    14     8   ar
    37    19    15   ar
@<TRIPOS>MOLECULE
*****
 32 37 0 0 0
SMALL
GASTEIGER

@<TRIPOS>ATOM
      1 N         140.1255  143.5337  160.8067 N.pl3   1  UNL1       -0.3074
      2 C         139.4643  142.9523  159.5923 C.3     1  UNL1        0.0908
      3 C         139.6164  143.6259  158.2607 C.3     1  UNL1        0.0237
      4 C         140.4297  144.8808  158.1435 C.3     1  UNL1        0.0285
      5 C         141.0909  145.4622  159.3579 C.3     1  UNL1        0.0237
      6 C         140.9388  144.7886  160.6896 C.3     1  UNL1        0.0908
      7 C         140.5817  145.5543  156.8119 C.3     1  UNL1        0.1117
      8 C         141.4856  145.1134  155.6989 C.ar    1  UNL1        0.0272
      9 C         142.4387  143.9616  155.5765 C.ar    1  UNL1        0.1379
     10 F         142.6051  143.0014  156.7167 F       1  UNL1       -0.2044
     11 C         143.2253  143.7700  154.3136 C.ar    1  UNL1        0.0294
     12 C         143.0588  144.7302  153.1734 C.ar    1  UNL1        0.0023
     13 C         142.1057  145.8820  153.2959 C.ar    1  UNL1        0.0014
     14 C         141.3191  146.0736  154.5586 C.ar    1  UNL1        0.0173
     15 C         140.3124  147.1080  154.9668 C.ar    1  UNL1        0.0804
     16 C         139.5874  148.3407  154.5144 C.ar    1  UNL1        0.1178
     17 N         138.6836  148.7816  155.6273 N.ar    1  UNL1       -0.2223
     18 C         138.8500  147.8214  156.7677 C.ar    1  UNL1        0.1788
     19 N         139.8567  146.7870  156.3594 N.ar    1  UNL1       -0.3069
     20 C         139.6693  141.5130  164.8016 C.ar    1  UNL1        0.0306
     21 C         139.9674  140.6977  163.5784 C.ar    1  UNL1        0.0036
     22 C         140.1195  141.3712  162.2468 C.ar    1  UNL1        0.0147
     23 C         139.9735  142.8601  162.1384 C.ar    1  UNL1        0.0501
     24 C         139.6753  143.6755  163.3616 C.ar    1  UNL1        0.0441
     25 C         139.5232  143.0020  164.6932 C.ar    1  UNL1        0.1414
     26 F         139.2251  143.8173  165.9164 F       1  UNL1       -0.2041
     27 C         140.2843  140.2568  169.8932 C.3     1  UNL1        0.1538
     28 N         139.7999  140.2621  168.4735 N.ar    1  UNL1       -0.2473
     29 C         140.2638  141.1864  167.3870 C.ar    1  UNL1        0.0967
     30 C         139.5172  140.8395  166.1332 C.ar    1  UNL1        0.0418
     31 C         138.5918  139.7007  166.4446 C.ar    1  UNL1        0.1217
     32 N         138.7666  139.3439  167.8911 N.ar    1  UNL1       -0.1676
@<TRIPOS>BOND
     1    27    28    1
     2    28    29   ar
     3    29    30   ar
     4    30    20    1
     5    20    21   ar
     6    21    22   ar
     7    22    23   ar
     8    23     1    1
     9     1     2    1
    10     2     3    1
    11     3     4    1
    12     4     7    1
    13     7     8    1
    14     8     9   ar
    15     9    10    1
    16     9    11   ar
    17    11    12   ar
    18    12    13   ar
    19    13    14   ar
    20    14    15    1
    21    15    16   ar
    22    16    17   ar
    23    17    18   ar
    24    18    19   ar
    25     4     5    1
    26     5     6    1
    27    23    24   ar
    28    24    25   ar
    29    25    26    1
    30    30    31   ar
    31    31    32   ar
    32    32    28   ar
    33    25    20   ar
    34     6     1    1
    35    19     7    1
    36    14     8   ar
    37    19    15   ar
@<TRIPOS>MOLECULE
*****
 32 37 0 0 0
SMALL
GASTEIGER

@<TRIPOS>ATOM
      1 N         141.0951  138.8940  159.3981 N.pl3   1  UNL1       -0.3074
      2 C         139.8032  138.9035  160.1603 C.3     1  UNL1        0.0908
      3 C         139.6500  139.7829  161.3657 C.3     1  UNL1        0.0237
      4 C         140.7887  140.6529  161.8090 C.3     1  UNL1        0.0285
      5 C         142.0806  140.6435  161.0468 C.3     1  UNL1        0.0237
      6 C         142.2338  139.7640  159.8414 C.3     1  UNL1        0.0908
      7 C         140.6354  141.5324  163.0144 C.3     1  UNL1        0.1117
      8 C         141.3066  141.3345  164.3413 C.ar    1  UNL1        0.0272
      9 C         142.2588  140.2874  164.8382 C.ar    1  UNL1        0.1379
     10 F         142.6952  139.1780  163.9280 F       1  UNL1       -0.2044
     11 C         142.7745  140.3498  166.2454 C.ar    1  UNL1        0.0294
     12 C         142.3380  141.4592  167.1556 C.ar    1  UNL1        0.0023
     13 C         141.3858  142.5063  166.6587 C.ar    1  UNL1        0.0014
     14 C         140.8701  142.4440  165.2516 C.ar    1  UNL1        0.0173
     15 C         139.9292  143.3276  164.4873 C.ar    1  UNL1        0.0804
     16 C         139.0780  144.5593  164.5776 C.ar    1  UNL1        0.1178
     17 N         138.4069  144.7572  163.2508 N.ar    1  UNL1       -0.2223
     18 C         138.8433  143.6477  162.3405 C.ar    1  UNL1        0.1788
     19 N         139.7842  142.7642  163.1047 N.ar    1  UNL1       -0.3069
     20 C         141.5547  136.2556  155.7819 C.ar    1  UNL1        0.0306
     21 C         142.7288  136.5071  156.6809 C.ar    1  UNL1        0.0036
     22 C         142.5756  137.3866  157.8863 C.ar    1  UNL1        0.0147
     23 C         141.2483  138.0145  158.1927 C.ar    1  UNL1        0.0501
     24 C         140.0741  137.7630  157.2937 C.ar    1  UNL1        0.0441
     25 C         140.2273  136.8836  156.0883 C.ar    1  UNL1        0.1414
     26 F         139.0533  136.6320  155.1893 F       1  UNL1       -0.2041
     27 C         142.2690  132.0155  152.7172 C.3     1  UNL1        0.1538
     28 N         142.0363  133.4272  153.1678 N.ar    1  UNL1       -0.2473
     29 C         141.9478  133.8956  154.5901 C.ar    1  UNL1        0.0967
     30 C         141.7079  135.3761  154.5764 C.ar    1  UNL1        0.0418
     31 C         141.6482  135.8230  153.1458 C.ar    1  UNL1        0.1217
     32 N         141.8511  134.6184  152.2752 N.ar    1  UNL1       -0.1676
@<TRIPOS>BOND
     1    27    28    1
     2    28    29   ar
     3    29    30   ar
     4    30    20    1
     5    20    21   ar
     6    21    22   ar
     7    22    23   ar
     8    23     1    1
     9     1     2    1
    10     2     3    1
    11     3     4    1
    12     4     7    1
    13     7     8    1
    14     8     9   ar
    15     9    10    1
    16     9    11   ar
    17    11    12   ar
    18    12    13   ar
    19    13    14   ar
    20    14    15    1
    21    15    16   ar
    22    16    17   ar
    23    17    18   ar
    24    18    19   ar
    25     4     5    1
    26     5     6    1
    27    23    24   ar
    28    24    25   ar
    29    25    26    1
    30    30    31   ar
    31    31    32   ar
    32    32    28   ar
    33    25    20   ar
    34     6     1    1
    35    19     7    1
    36    14     8   ar
    37    19    15   ar
