@<TRIPOS>MOLECULE
*****
 40 43 0 0 0
SMALL
GASTEIGER

@<TRIPOS>ATOM
      1 C         141.8382  145.2978  158.2404 C.3     1  UNL1        0.1459
      2 O         142.4704  146.4368  157.4970 O.3     1  UNL1       -0.3813
      3 H         142.4174  147.2427  158.0343 H       1  UNL1        0.2105
      4 C         141.7910  143.9323  157.6214 C.3     1  UNL1        0.1034
      5 C         143.3920  140.3826  159.8767 C.3     1  UNL1        0.1687
      6 C         144.3259  141.4629  159.4175 C.3     1  UNL1        0.0609
      7 C         143.7922  142.6461  158.6657 C.3     1  UNL1        0.0759
      8 N         142.3246  142.7491  158.3731 N.3     1  UNL1       -0.2704
      9 C         141.3907  141.6689  158.8324 C.3     1  UNL1        0.0759
     10 C         141.9243  140.4857  159.5841 C.3     1  UNL1        0.0609
     11 O         143.9256  139.1994  160.6285 O.3     1  UNL1       -0.4782
     12 C         141.2743  137.4203  164.7279 C.3     1  UNL1        0.0329
     13 C         142.4123  138.2182  164.1636 C.ar    1  UNL1        0.0023
     14 C         143.3625  138.9244  165.0846 C.ar    1  UNL1        0.0547
     15 CL        143.1749  138.8327  166.5700 Cl      1  UNL1       -0.0825
     16 C         144.5005  139.7222  164.5203 C.ar    1  UNL1        0.0142
     17 C         144.6881  139.8139  163.0349 C.ar    1  UNL1        0.0386
     18 C         143.7379  139.1078  162.1139 C.ar    1  UNL1        0.1485
     19 C         142.6000  138.3099  162.6782 C.ar    1  UNL1        0.0884
     20 CL        141.6497  137.6037  161.7572 Cl      1  UNL1       -0.0794
     21 C         141.2532  145.5241  159.6030 C.3     1  UNL1        0.1204
     22 N         141.8239  144.8101  160.7923 N.am    1  UNL1       -0.2985
     23 C         141.2444  145.0428  162.1561 C.2     1  UNL1        0.2469
     24 O         140.0940  145.9896  162.3306 O.2     1  UNL1       -0.2701
     25 H         142.5789  144.1887  160.6778 H       1  UNL1        0.1498
     26 C         141.8151  144.3287  163.3454 C.2     1  UNL1        0.0665
     27 C         143.1570  144.7255  163.8856 C.2     1  UNL1        0.0931
     28 N         143.7277  144.0115  165.0749 N.am    1  UNL1       -0.1740
     29 C         142.9565  142.9006  165.7240 C.2     1  UNL1        0.2688
     30 O         143.5273  142.1866  166.9133 O.2     1  UNL1       -0.2680
     31 C         141.6146  142.5038  165.1837 C.2     1  UNL1        0.0532
     32 C         140.8434  141.3929  165.8328 C.2     1  UNL1        0.0223
     33 C         139.5016  140.9962  165.2926 C.2     1  UNL1        0.1019
     34 C         138.9309  141.7102  164.1033 C.2     1  UNL1       -0.0031
     35 C         139.7020  142.8210  163.4542 C.3     1  UNL1        0.0540
     36 C         141.0439  143.2178  163.9945 C.2     1  UNL1       -0.0076
     37 S         138.7304  139.8853  165.9416 S.O2    1  UNL1        0.0102
     38 C         137.9592  138.7745  166.5907 C.3     1  UNL1        0.1816
     39 O         138.1506  139.5098  164.6102 O.2     1  UNL1       -0.1686
     40 O         139.3101  140.2608  167.2731 O.2     1  UNL1       -0.1686
@<TRIPOS>BOND
     1    12    13    1
     2    13    14   ar
     3    14    15    1
     4    14    16   ar
     5    16    17   ar
     6    17    18   ar
     7    18    11    1
     8    11     5    1
     9     5     6    1
    10     6     7    1
    11     7     8    1
    12     8     4    1
    13     4     1    1
    14     1     2    1
    15     1    21    1
    16    21    22    1
    17    22    23   am
    18    23    24    2
    19    23    26    1
    20    26    27    1
    21    27    28    2
    22    28    29    1
    23    29    30    2
    24    29    31    1
    25    31    32    2
    26    32    33    1
    27    33    37    1
    28    37    38    1
    29    37    39    2
    30    37    40    2
    31    33    34    2
    32    34    35    1
    33    35    36    1
    34     8     9    1
    35     9    10    1
    36    18    19   ar
    37    19    20    1
    38    19    13   ar
    39    10     5    1
    40    36    26    2
    41    36    31    1
    42     2     3    1
    43    22    25    1
@<TRIPOS>MOLECULE
*****
 40 43 0 0 0
SMALL
GASTEIGER

@<TRIPOS>ATOM
      1 C         141.7192  145.1574  158.1786 C.3     1  UNL1        0.1459
      2 O         142.5470  146.3311  157.7460 O.3     1  UNL1       -0.3813
      3 H         142.2847  147.1158  158.2523 H       1  UNL1        0.2105
      4 C         141.9313  143.8152  157.5433 C.3     1  UNL1        0.1034
      5 C         143.6323  140.4241  159.9634 C.3     1  UNL1        0.1687
      6 C         142.4914  140.1752  159.0220 C.3     1  UNL1        0.0609
      7 C         141.9244  141.3056  158.2153 C.3     1  UNL1        0.0759
      8 N         142.4983  142.6849  158.3500 N.3     1  UNL1       -0.2704
      9 C         143.6393  142.9338  159.2914 C.3     1  UNL1        0.0759
     10 C         144.2063  141.8034  160.0981 C.3     1  UNL1        0.0609
     11 O         144.1993  139.2937  160.7701 O.3     1  UNL1       -0.4782
     12 C         141.1049  137.3699  164.4746 C.3     1  UNL1        0.0329
     13 C         142.2937  138.1914  164.0721 C.ar    1  UNL1        0.0023
     14 C         143.1240  138.8724  165.1193 C.ar    1  UNL1        0.0547
     15 CL        142.7656  138.7320  166.5691 Cl      1  UNL1       -0.0825
     16 C         144.3128  139.6938  164.7168 C.ar    1  UNL1        0.0142
     17 C         144.6712  139.8343  163.2671 C.ar    1  UNL1        0.0386
     18 C         143.8409  139.1533  162.2198 C.ar    1  UNL1        0.1485
     19 C         142.6522  138.3319  162.6223 C.ar    1  UNL1        0.0884
     20 CL        141.8218  137.6508  161.5751 Cl      1  UNL1       -0.0794
     21 C         140.6792  145.3258  159.2464 C.3     1  UNL1        0.1204
     22 N         140.3102  144.1663  160.1235 N.am    1  UNL1       -0.2985
     23 C         139.4878  144.3913  161.3576 C.2     1  UNL1        0.2469
     24 O         139.0343  145.7759  161.7146 O.2     1  UNL1       -0.2701
     25 H         140.6079  143.2576  159.8892 H       1  UNL1        0.1498
     26 C         139.1189  143.2318  162.2347 C.2     1  UNL1        0.0665
     27 C         137.9632  142.3498  161.8653 C.2     1  UNL1        0.0931
     28 N         137.5943  141.1903  162.7425 N.am    1  UNL1       -0.1740
     29 C         138.3810  140.9128  163.9890 C.2     1  UNL1        0.2688
     30 O         138.0121  139.7533  164.8662 O.2     1  UNL1       -0.2680
     31 C         139.5367  141.7948  164.3585 C.2     1  UNL1        0.0532
     32 C         140.3234  141.5172  165.6051 C.2     1  UNL1        0.0223
     33 C         141.4791  142.3992  165.9746 C.2     1  UNL1        0.1019
     34 C         141.8480  143.5587  165.0974 C.2     1  UNL1       -0.0031
     35 C         141.0613  143.8363  163.8508 C.3     1  UNL1        0.0540
     36 C         139.9057  142.9543  163.4814 C.2     1  UNL1       -0.0076
     37 S         142.2659  142.1217  167.2212 S.O2    1  UNL1        0.0102
     38 C         143.0526  141.8442  168.4677 C.3     1  UNL1        0.1816
     39 O         141.0188  141.6394  167.9009 O.2     1  UNL1       -0.1686
     40 O         143.5129  142.6040  166.5415 O.2     1  UNL1       -0.1686
@<TRIPOS>BOND
     1    12    13    1
     2    13    14   ar
     3    14    15    1
     4    14    16   ar
     5    16    17   ar
     6    17    18   ar
     7    18    11    1
     8    11     5    1
     9     5     6    1
    10     6     7    1
    11     7     8    1
    12     8     4    1
    13     4     1    1
    14     1     2    1
    15     1    21    1
    16    21    22    1
    17    22    23   am
    18    23    24    2
    19    23    26    1
    20    26    27    1
    21    27    28    2
    22    28    29    1
    23    29    30    2
    24    29    31    1
    25    31    32    2
    26    32    33    1
    27    33    37    1
    28    37    38    1
    29    37    39    2
    30    37    40    2
    31    33    34    2
    32    34    35    1
    33    35    36    1
    34     8     9    1
    35     9    10    1
    36    18    19   ar
    37    19    20    1
    38    19    13   ar
    39    10     5    1
    40    36    26    2
    41    36    31    1
    42     2     3    1
    43    22    25    1
@<TRIPOS>MOLECULE
*****
 40 43 0 0 0
SMALL
GASTEIGER

@<TRIPOS>ATOM
      1 C         137.4430  139.7269  160.3764 C.3     1  UNL1        0.1459
      2 O         135.9749  139.5029  160.1658 O.3     1  UNL1       -0.3813
      3 H         135.6078  140.2340  159.6446 H       1  UNL1        0.2105
      4 C         138.2490  138.7318  161.1575 C.3     1  UNL1        0.1034
      5 C         138.6733  139.1826  165.6147 C.3     1  UNL1        0.1687
      6 C         139.1813  137.9462  164.9342 C.3     1  UNL1        0.0609
      7 C         139.0399  137.7959  163.4484 C.3     1  UNL1        0.0759
      8 N         138.3904  138.8821  162.6432 N.3     1  UNL1       -0.2704
      9 C         137.8824  140.1186  163.3237 C.3     1  UNL1        0.0759
     10 C         138.0238  140.2688  164.8094 C.3     1  UNL1        0.0609
     11 O         138.8147  139.3329  167.1004 O.3     1  UNL1       -0.4782
     12 C         141.0580  141.8213  171.0723 C.3     1  UNL1        0.0329
     13 C         141.1033  141.3276  169.6566 C.ar    1  UNL1        0.0023
     14 C         142.3154  141.5844  168.8112 C.ar    1  UNL1        0.0547
     15 CL        143.4822  142.3348  169.3814 Cl      1  UNL1       -0.0825
     16 C         142.3606  141.0907  167.3955 C.ar    1  UNL1        0.0142
     17 C         141.1937  140.3402  166.8252 C.ar    1  UNL1        0.0386
     18 C         139.9816  140.0834  167.6707 C.ar    1  UNL1        0.1485
     19 C         139.9364  140.5771  169.0863 C.ar    1  UNL1        0.0884
     20 CL        138.7242  140.3203  169.9319 Cl      1  UNL1       -0.0794
     21 C         138.1052  140.9460  159.8058 C.3     1  UNL1        0.1204
     22 N         139.2762  141.5630  160.5116 N.am    1  UNL1       -0.2985
     23 C         139.0673  142.7266  161.4349 C.2     1  UNL1        0.2469
     24 O         137.6873  143.2731  161.6525 O.2     1  UNL1       -0.2701
     25 H         140.1818  141.2044  160.3688 H       1  UNL1        0.1498
     26 C         140.2382  143.3437  162.1406 C.2     1  UNL1        0.0665
     27 C         140.3282  144.8342  162.2821 C.2     1  UNL1        0.0931
     28 N         141.4991  145.4513  162.9879 N.am    1  UNL1       -0.1740
     29 C         142.5801  144.5778  163.5522 C.2     1  UNL1        0.2688
     30 O         143.7510  145.1949  164.2579 O.2     1  UNL1       -0.2680
     31 C         142.4901  143.0872  163.4107 C.2     1  UNL1        0.0532
     32 C         143.5711  142.2137  163.9750 C.2     1  UNL1        0.0223
     33 C         143.4811  140.7231  163.8336 C.2     1  UNL1        0.1019
     34 C         142.3102  140.1060  163.1278 C.2     1  UNL1       -0.0031
     35 C         141.2292  140.9795  162.5635 C.3     1  UNL1        0.0540
     36 C         141.3192  142.4701  162.7050 C.2     1  UNL1       -0.0076
     37 S         144.5622  139.8496  164.3979 S.O2    1  UNL1        0.0102
     38 C         145.6431  138.9761  164.9621 C.3     1  UNL1        0.1816
     39 O         143.5344  138.8282  164.7856 O.2     1  UNL1       -0.1686
     40 O         145.5899  140.8710  164.0101 O.2     1  UNL1       -0.1686
@<TRIPOS>BOND
     1    12    13    1
     2    13    14   ar
     3    14    15    1
     4    14    16   ar
     5    16    17   ar
     6    17    18   ar
     7    18    11    1
     8    11     5    1
     9     5     6    1
    10     6     7    1
    11     7     8    1
    12     8     4    1
    13     4     1    1
    14     1     2    1
    15     1    21    1
    16    21    22    1
    17    22    23   am
    18    23    24    2
    19    23    26    1
    20    26    27    1
    21    27    28    2
    22    28    29    1
    23    29    30    2
    24    29    31    1
    25    31    32    2
    26    32    33    1
    27    33    37    1
    28    37    38    1
    29    37    39    2
    30    37    40    2
    31    33    34    2
    32    34    35    1
    33    35    36    1
    34     8     9    1
    35     9    10    1
    36    18    19   ar
    37    19    20    1
    38    19    13   ar
    39    10     5    1
    40    36    26    2
    41    36    31    1
    42     2     3    1
    43    22    25    1
@<TRIPOS>MOLECULE
*****
 40 43 0 0 0
SMALL
GASTEIGER

@<TRIPOS>ATOM
      1 C         143.1986  141.6004  169.0218 C.3     1  UNL1        0.1459
      2 O         144.0152  142.0322  170.2035 O.3     1  UNL1       -0.3813
      3 H         144.2492  142.9689  170.1099 H       1  UNL1        0.2105
      4 C         142.7078  140.1862  168.9257 C.3     1  UNL1        0.1034
      5 C         139.3802  139.1477  166.0799 C.3     1  UNL1        0.1687
      6 C         139.0623  139.7304  167.4250 C.3     1  UNL1        0.0609
      7 C         140.1715  140.0766  168.3736 C.3     1  UNL1        0.0759
      8 N         141.5987  139.8400  167.9771 N.3     1  UNL1       -0.2704
      9 C         141.9166  139.2573  166.6320 C.3     1  UNL1        0.0759
     10 C         140.8074  138.9111  165.6834 C.3     1  UNL1        0.0609
     11 O         138.2710  138.8015  165.1314 O.3     1  UNL1       -0.4782
     12 C         138.3274  142.0785  161.0992 C.3     1  UNL1        0.0329
     13 C         138.4647  140.6881  161.6452 C.ar    1  UNL1        0.0023
     14 C         138.7675  139.5460  160.7212 C.ar    1  UNL1        0.0547
     15 CL        138.9329  139.7942  159.2512 Cl      1  UNL1       -0.0825
     16 C         138.9047  138.1557  161.2673 C.ar    1  UNL1        0.0142
     17 C         138.7392  137.9075  162.7373 C.ar    1  UNL1        0.0386
     18 C         138.4365  139.0497  163.6613 C.ar    1  UNL1        0.1485
     19 C         138.2992  140.4400  163.1153 C.ar    1  UNL1        0.0884
     20 CL        137.9965  141.5822  164.0393 Cl      1  UNL1       -0.0794
     21 C         142.8727  142.5827  167.9360 C.3     1  UNL1        0.1204
     22 N         142.9893  142.1761  166.4969 N.am    1  UNL1       -0.2985
     23 C         143.9852  142.8550  165.6040 C.2     1  UNL1        0.2469
     24 O         144.8645  143.9406  166.1502 O.2     1  UNL1       -0.2701
     25 H         142.4122  141.4635  166.1384 H       1  UNL1        0.1498
     26 C         144.1018  142.4483  164.1649 C.2     1  UNL1        0.0665
     27 C         145.0329  141.3399  163.7718 C.2     1  UNL1        0.0931
     28 N         145.1495  140.9332  162.3327 N.am    1  UNL1       -0.1740
     29 C         144.3350  141.6349  161.2867 C.2     1  UNL1        0.2688
     30 O         144.4516  141.2283  159.8476 O.2     1  UNL1       -0.2680
     31 C         143.4039  142.7434  161.6798 C.2     1  UNL1        0.0532
     32 C         142.5894  143.4450  160.6337 C.2     1  UNL1        0.0223
     33 C         141.6583  144.5534  161.0268 C.2     1  UNL1        0.1019
     34 C         141.5417  144.9601  162.4659 C.2     1  UNL1       -0.0031
     35 C         142.3561  144.2584  163.5119 C.3     1  UNL1        0.0540
     36 C         143.2872  143.1500  163.1189 C.2     1  UNL1       -0.0076
     37 S         140.8438  145.2552  159.9807 S.O2    1  UNL1        0.0102
     38 C         140.0293  145.9569  158.9347 C.3     1  UNL1        0.1816
     39 O         139.6851  145.3262  160.9306 O.2     1  UNL1       -0.1686
     40 O         142.0025  145.1841  159.0309 O.2     1  UNL1       -0.1686
@<TRIPOS>BOND
     1    12    13    1
     2    13    14   ar
     3    14    15    1
     4    14    16   ar
     5    16    17   ar
     6    17    18   ar
     7    18    11    1
     8    11     5    1
     9     5     6    1
    10     6     7    1
    11     7     8    1
    12     8     4    1
    13     4     1    1
    14     1     2    1
    15     1    21    1
    16    21    22    1
    17    22    23   am
    18    23    24    2
    19    23    26    1
    20    26    27    1
    21    27    28    2
    22    28    29    1
    23    29    30    2
    24    29    31    1
    25    31    32    2
    26    32    33    1
    27    33    37    1
    28    37    38    1
    29    37    39    2
    30    37    40    2
    31    33    34    2
    32    34    35    1
    33    35    36    1
    34     8     9    1
    35     9    10    1
    36    18    19   ar
    37    19    20    1
    38    19    13   ar
    39    10     5    1
    40    36    26    2
    41    36    31    1
    42     2     3    1
    43    22    25    1
@<TRIPOS>MOLECULE
*****
 40 43 0 0 0
SMALL
GASTEIGER

@<TRIPOS>ATOM
      1 C         142.2093  138.8579  158.7085 C.3     1  UNL1        0.1459
      2 O         142.9154  137.5486  158.5161 O.3     1  UNL1       -0.3813
      3 H         143.8533  137.7114  158.3298 H       1  UNL1        0.2105
      4 C         140.7401  138.8805  159.0104 C.3     1  UNL1        0.1034
      5 C         139.3098  138.4844  163.2586 C.3     1  UNL1        0.1687
      6 C         140.5836  137.8177  162.8309 C.3     1  UNL1        0.0609
      7 C         141.0604  137.9497  161.4147 C.3     1  UNL1        0.0759
      8 N         140.2634  138.7485  160.4264 N.3     1  UNL1       -0.2704
      9 C         138.9896  139.4152  160.8542 C.3     1  UNL1        0.0759
     10 C         138.5128  139.2832  162.2702 C.3     1  UNL1        0.0609
     11 O         138.8331  138.3524  164.6746 O.3     1  UNL1       -0.4782
     12 C         138.8806  140.1696  169.5425 C.3     1  UNL1        0.0329
     13 C         139.5431  140.0207  168.2049 C.ar    1  UNL1        0.0023
     14 C         140.8916  140.6316  167.9637 C.ar    1  UNL1        0.0547
     15 CL        141.5778  141.3914  169.0600 Cl      1  UNL1       -0.0825
     16 C         141.5540  140.4827  166.6261 C.ar    1  UNL1        0.0142
     17 C         140.8678  139.7230  165.5298 C.ar    1  UNL1        0.0386
     18 C         139.5192  139.1121  165.7710 C.ar    1  UNL1        0.1485
     19 C         138.8569  139.2610  167.1085 C.ar    1  UNL1        0.0884
     20 CL        137.5083  138.6501  167.3498 Cl      1  UNL1       -0.0794
     21 C         142.9723  140.1448  158.5989 C.3     1  UNL1        0.1204
     22 N         143.1949  140.9907  159.8175 N.am    1  UNL1       -0.2985
     23 C         143.8429  140.3982  161.0336 C.2     1  UNL1        0.2469
     24 O         144.2682  138.9597  161.0313 O.2     1  UNL1       -0.2701
     25 H         142.9158  141.9348  159.8190 H       1  UNL1        0.1498
     26 C         144.0656  141.2441  162.2522 C.2     1  UNL1        0.0665
     27 C         145.4415  141.3711  162.8358 C.2     1  UNL1        0.0931
     28 N         145.6641  142.2170  164.0544 N.am    1  UNL1       -0.1740
     29 C         144.5109  142.9360  164.6892 C.2     1  UNL1        0.2688
     30 O         144.7336  143.7819  165.9078 O.2     1  UNL1       -0.2680
     31 C         143.1349  142.8090  164.1056 C.2     1  UNL1        0.0532
     32 C         141.9817  143.5280  164.7404 C.2     1  UNL1        0.0223
     33 C         140.6058  143.4010  164.1568 C.2     1  UNL1        0.1019
     34 C         140.3831  142.5551  162.9382 C.2     1  UNL1       -0.0031
     35 C         141.5363  141.8361  162.3034 C.3     1  UNL1        0.0540
     36 C         142.9122  141.9631  162.8870 C.2     1  UNL1       -0.0076
     37 S         139.4524  144.1200  164.7916 S.O2    1  UNL1        0.0102
     38 C         138.2992  144.8390  165.4264 C.3     1  UNL1        0.1816
     39 O         139.7300  143.4200  166.0889 O.2     1  UNL1       -0.1686
     40 O         139.1748  144.8200  163.4944 O.2     1  UNL1       -0.1686
@<TRIPOS>BOND
     1    12    13    1
     2    13    14   ar
     3    14    15    1
     4    14    16   ar
     5    16    17   ar
     6    17    18   ar
     7    18    11    1
     8    11     5    1
     9     5     6    1
    10     6     7    1
    11     7     8    1
    12     8     4    1
    13     4     1    1
    14     1     2    1
    15     1    21    1
    16    21    22    1
    17    22    23   am
    18    23    24    2
    19    23    26    1
    20    26    27    1
    21    27    28    2
    22    28    29    1
    23    29    30    2
    24    29    31    1
    25    31    32    2
    26    32    33    1
    27    33    37    1
    28    37    38    1
    29    37    39    2
    30    37    40    2
    31    33    34    2
    32    34    35    1
    33    35    36    1
    34     8     9    1
    35     9    10    1
    36    18    19   ar
    37    19    20    1
    38    19    13   ar
    39    10     5    1
    40    36    26    2
    41    36    31    1
    42     2     3    1
    43    22    25    1
@<TRIPOS>MOLECULE
*****
 40 43 0 0 0
SMALL
GASTEIGER

@<TRIPOS>ATOM
      1 C         139.9376  141.0238  169.6605 C.3     1  UNL1        0.1459
      2 O         139.1972  141.9760  170.5522 O.3     1  UNL1       -0.3813
      3 H         138.2448  141.8031  170.4900 H       1  UNL1        0.2105
      4 C         141.4340  141.0848  169.5762 C.3     1  UNL1        0.1034
      5 C         143.5402  139.6273  165.8763 C.3     1  UNL1        0.1687
      6 C         143.0420  141.0403  165.9482 C.3     1  UNL1        0.0609
      7 C         142.3398  141.5261  167.1815 C.3     1  UNL1        0.0759
      8 N         142.1361  140.5990  168.3429 N.3     1  UNL1       -0.2704
      9 C         142.6343  139.1860  168.2710 C.3     1  UNL1        0.0759
     10 C         143.3364  138.7001  167.0378 C.3     1  UNL1        0.0609
     11 O         144.2423  139.1414  164.6430 O.3     1  UNL1       -0.4782
     12 C         144.9698  142.6264  160.8581 C.3     1  UNL1        0.0329
     13 C         144.2347  141.4400  161.4079 C.ar    1  UNL1        0.0023
     14 C         143.1284  140.8098  160.6149 C.ar    1  UNL1        0.0547
     15 CL        142.7570  141.3660  159.2722 Cl      1  UNL1       -0.0825
     16 C         142.3933  139.6235  161.1647 C.ar    1  UNL1        0.0142
     17 C         142.7647  139.0674  162.5074 C.ar    1  UNL1        0.0386
     18 C         143.8710  139.6976  163.3003 C.ar    1  UNL1        0.1485
     19 C         144.6060  140.8839  162.7506 C.ar    1  UNL1        0.0884
     20 CL        145.7125  141.5142  163.5435 Cl      1  UNL1       -0.0794
     21 C         139.1816  140.0105  168.8532 C.3     1  UNL1        0.1204
     22 N         139.3843  139.9316  167.3690 N.am    1  UNL1       -0.2985
     23 C         138.4156  139.1634  166.5196 C.2     1  UNL1        0.2469
     24 O         137.2442  138.4742  167.1542 O.2     1  UNL1       -0.2701
     25 H         140.1531  140.3840  166.9525 H       1  UNL1        0.1498
     26 C         138.6184  139.0845  165.0354 C.2     1  UNL1        0.0665
     27 C         138.5637  137.7563  164.3406 C.2     1  UNL1        0.0931
     28 N         138.7664  137.6773  162.8565 N.am    1  UNL1       -0.1740
     29 C         139.0238  138.9266  162.0671 C.2     1  UNL1        0.2688
     30 O         139.2265  138.8476  160.5830 O.2     1  UNL1       -0.2680
     31 C         139.0785  140.2549  162.7620 C.2     1  UNL1        0.0532
     32 C         139.3359  141.5041  161.9727 C.2     1  UNL1        0.0223
     33 C         139.3906  142.8323  162.6675 C.2     1  UNL1        0.1019
     34 C         139.1879  142.9113  164.1516 C.2     1  UNL1       -0.0031
     35 C         138.9305  141.6620  164.9409 C.3     1  UNL1        0.0540
     36 C         138.8758  140.3338  164.2461 C.2     1  UNL1       -0.0076
     37 S         139.6480  144.0817  161.8782 S.O2    1  UNL1        0.0102
     38 C         139.9053  145.3310  161.0889 C.3     1  UNL1        0.1816
     39 O         140.9981  143.5573  161.4883 O.2     1  UNL1       -0.1686
     40 O         138.2978  144.6061  162.2680 O.2     1  UNL1       -0.1686
@<TRIPOS>BOND
     1    12    13    1
     2    13    14   ar
     3    14    15    1
     4    14    16   ar
     5    16    17   ar
     6    17    18   ar
     7    18    11    1
     8    11     5    1
     9     5     6    1
    10     6     7    1
    11     7     8    1
    12     8     4    1
    13     4     1    1
    14     1     2    1
    15     1    21    1
    16    21    22    1
    17    22    23   am
    18    23    24    2
    19    23    26    1
    20    26    27    1
    21    27    28    2
    22    28    29    1
    23    29    30    2
    24    29    31    1
    25    31    32    2
    26    32    33    1
    27    33    37    1
    28    37    38    1
    29    37    39    2
    30    37    40    2
    31    33    34    2
    32    34    35    1
    33    35    36    1
    34     8     9    1
    35     9    10    1
    36    18    19   ar
    37    19    20    1
    38    19    13   ar
    39    10     5    1
    40    36    26    2
    41    36    31    1
    42     2     3    1
    43    22    25    1
@<TRIPOS>MOLECULE
*****
 40 43 0 0 0
SMALL
GASTEIGER

@<TRIPOS>ATOM
      1 C         139.7181  143.2348  157.4545 C.3     1  UNL1        0.1459
      2 O         140.2019  143.6118  156.0857 O.3     1  UNL1       -0.3813
      3 H         140.6285  144.4822  156.1219 H       1  UNL1        0.2105
      4 C         139.0185  141.9253  157.6684 C.3     1  UNL1        0.1034
      5 C         140.9764  138.7030  160.1246 C.3     1  UNL1        0.1687
      6 C         141.5863  139.1278  158.8217 C.3     1  UNL1        0.0609
      7 C         140.9336  140.2020  158.0030 C.3     1  UNL1        0.0759
      8 N         139.6711  140.8512  158.4872 N.3     1  UNL1       -0.2704
      9 C         139.0612  140.4264  159.7901 C.3     1  UNL1        0.0759
     10 C         139.7139  139.3523  160.6088 C.3     1  UNL1        0.0609
     11 O         141.6291  137.6289  160.9433 O.3     1  UNL1       -0.4782
     12 C         144.9485  139.7435  164.3360 C.3     1  UNL1        0.0329
     13 C         143.6966  138.9660  164.0558 C.ar    1  UNL1        0.0023
     14 C         142.8527  138.4684  165.1916 C.ar    1  UNL1        0.0547
     15 CL        143.2606  138.7483  166.6077 Cl      1  UNL1       -0.0825
     16 C         141.6010  137.6910  164.9114 C.ar    1  UNL1        0.0142
     17 C         141.1931  137.4111  163.4953 C.ar    1  UNL1        0.0386
     18 C         142.0370  137.9087  162.3594 C.ar    1  UNL1        0.1485
     19 C         143.2887  138.6862  162.6397 C.ar    1  UNL1        0.0884
     20 CL        144.1327  139.1838  161.5038 Cl      1  UNL1       -0.0794
     21 C         139.9340  144.1672  158.6095 C.3     1  UNL1        0.1204
     22 N         140.6642  143.6922  159.8306 N.am    1  UNL1       -0.2985
     23 C         140.4893  144.4102  161.1359 C.2     1  UNL1        0.2469
     24 O         139.5840  145.6033  161.2202 O.2     1  UNL1       -0.2701
     25 H         141.2584  142.9091  159.7753 H       1  UNL1        0.1498
     26 C         141.2195  143.9351  162.3570 C.2     1  UNL1        0.0665
     27 C         142.5704  144.4964  162.6888 C.2     1  UNL1        0.0931
     28 N         143.3006  144.0213  163.9099 N.am    1  UNL1       -0.1740
     29 C         142.6800  142.9850  164.7992 C.2     1  UNL1        0.2688
     30 O         143.4103  142.5099  166.0202 O.2     1  UNL1       -0.2680
     31 C         141.3291  142.4237  164.4674 C.2     1  UNL1        0.0532
     32 C         140.7085  141.3873  165.3566 C.2     1  UNL1        0.0223
     33 C         139.3577  140.8260  165.0248 C.2     1  UNL1        0.1019
     34 C         138.6274  141.3011  163.8037 C.2     1  UNL1       -0.0031
     35 C         139.2480  142.3374  162.9144 C.3     1  UNL1        0.0540
     36 C         140.5989  142.8987  163.2463 C.2     1  UNL1       -0.0076
     37 S         138.7370  139.7896  165.9141 S.O2    1  UNL1        0.0102
     38 C         138.1164  138.7533  166.8033 C.3     1  UNL1        0.1816
     39 O         138.1214  139.1301  164.7158 O.2     1  UNL1       -0.1686
     40 O         139.3527  140.4492  167.1123 O.2     1  UNL1       -0.1686
@<TRIPOS>BOND
     1    12    13    1
     2    13    14   ar
     3    14    15    1
     4    14    16   ar
     5    16    17   ar
     6    17    18   ar
     7    18    11    1
     8    11     5    1
     9     5     6    1
    10     6     7    1
    11     7     8    1
    12     8     4    1
    13     4     1    1
    14     1     2    1
    15     1    21    1
    16    21    22    1
    17    22    23   am
    18    23    24    2
    19    23    26    1
    20    26    27    1
    21    27    28    2
    22    28    29    1
    23    29    30    2
    24    29    31    1
    25    31    32    2
    26    32    33    1
    27    33    37    1
    28    37    38    1
    29    37    39    2
    30    37    40    2
    31    33    34    2
    32    34    35    1
    33    35    36    1
    34     8     9    1
    35     9    10    1
    36    18    19   ar
    37    19    20    1
    38    19    13   ar
    39    10     5    1
    40    36    26    2
    41    36    31    1
    42     2     3    1
    43    22    25    1
@<TRIPOS>MOLECULE
*****
 40 43 0 0 0
SMALL
GASTEIGER

@<TRIPOS>ATOM
      1 C         139.1035  141.1440  157.4640 C.3     1  UNL1        0.1459
      2 O         138.2342  140.0663  156.8871 O.3     1  UNL1       -0.3813
      3 H         138.7802  139.2972  156.6605 H       1  UNL1        0.2105
      4 C         138.4965  142.4454  157.8976 C.3     1  UNL1        0.1034
      5 C         139.7109  144.3003  161.8136 C.3     1  UNL1        0.1687
      6 C         140.2429  144.8533  160.5247 C.3     1  UNL1        0.0609
      7 C         139.8381  144.2350  159.2194 C.3     1  UNL1        0.0759
      8 N         138.9013  143.0636  159.2029 N.3     1  UNL1       -0.2704
      9 C         138.3692  142.5106  160.4918 C.3     1  UNL1        0.0759
     10 C         138.7740  143.1289  161.7970 C.3     1  UNL1        0.0609
     11 O         140.1156  144.9186  163.1189 O.3     1  UNL1       -0.4782
     12 C         144.4152  142.6690  164.9770 C.3     1  UNL1        0.0329
     13 C         142.9485  142.9614  165.0923 C.ar    1  UNL1        0.0023
     14 C         142.1649  142.4216  166.2518 C.ar    1  UNL1        0.0547
     15 CL        142.8480  141.5892  167.2961 Cl      1  UNL1       -0.0825
     16 C         140.6982  142.7141  166.3670 C.ar    1  UNL1        0.0142
     17 C         140.0151  143.5464  165.3227 C.ar    1  UNL1        0.0386
     18 C         140.7987  144.0863  164.1632 C.ar    1  UNL1        0.1485
     19 C         142.2654  143.7938  164.0480 C.ar    1  UNL1        0.0884
     20 CL        143.0490  144.3336  162.8884 Cl      1  UNL1       -0.0794
     21 C         140.5799  140.9204  157.6072 C.3     1  UNL1        0.1204
     22 N         141.1965  140.8347  158.9718 N.am    1  UNL1       -0.2985
     23 C         141.3603  139.5009  159.6384 C.2     1  UNL1        0.2469
     24 O         140.9075  138.2529  158.9402 O.2     1  UNL1       -0.2701
     25 H         141.4938  141.6538  159.4301 H       1  UNL1        0.1498
     26 C         141.9770  139.4152  161.0031 C.2     1  UNL1        0.0665
     27 C         143.4649  139.5195  161.1616 C.2     1  UNL1        0.0931
     28 N         144.0816  139.4338  162.5263 N.am    1  UNL1       -0.1740
     29 C         143.2103  139.2437  163.7324 C.2     1  UNL1        0.2688
     30 O         143.8270  139.1579  165.0971 O.2     1  UNL1       -0.2680
     31 C         141.7223  139.1393  163.5739 C.2     1  UNL1        0.0532
     32 C         140.8511  138.9492  164.7800 C.2     1  UNL1        0.0223
     33 C         139.3632  138.8449  164.6214 C.2     1  UNL1        0.1019
     34 C         138.7465  138.9307  163.2567 C.2     1  UNL1       -0.0031
     35 C         139.6178  139.1208  162.0506 C.3     1  UNL1        0.0540
     36 C         141.1057  139.2251  162.2092 C.2     1  UNL1       -0.0076
     37 S         138.4918  138.6548  165.8276 S.O2    1  UNL1        0.0102
     38 C         137.6205  138.4648  167.0337 C.3     1  UNL1        0.1816
     39 O         138.5408  137.1689  165.6288 O.2     1  UNL1       -0.1686
     40 O         138.4428  140.1407  166.0263 O.2     1  UNL1       -0.1686
@<TRIPOS>BOND
     1    12    13    1
     2    13    14   ar
     3    14    15    1
     4    14    16   ar
     5    16    17   ar
     6    17    18   ar
     7    18    11    1
     8    11     5    1
     9     5     6    1
    10     6     7    1
    11     7     8    1
    12     8     4    1
    13     4     1    1
    14     1     2    1
    15     1    21    1
    16    21    22    1
    17    22    23   am
    18    23    24    2
    19    23    26    1
    20    26    27    1
    21    27    28    2
    22    28    29    1
    23    29    30    2
    24    29    31    1
    25    31    32    2
    26    32    33    1
    27    33    37    1
    28    37    38    1
    29    37    39    2
    30    37    40    2
    31    33    34    2
    32    34    35    1
    33    35    36    1
    34     8     9    1
    35     9    10    1
    36    18    19   ar
    37    19    20    1
    38    19    13   ar
    39    10     5    1
    40    36    26    2
    41    36    31    1
    42     2     3    1
    43    22    25    1
@<TRIPOS>MOLECULE
*****
 40 43 0 0 0
SMALL
GASTEIGER

@<TRIPOS>ATOM
      1 C         142.7033  140.9376  169.0020 C.3     1  UNL1        0.1459
      2 O         142.3623  141.1101  170.4525 O.3     1  UNL1       -0.3813
      3 H         142.1657  140.2444  170.8435 H       1  UNL1        0.2105
      4 C         143.0486  142.1337  168.1653 C.3     1  UNL1        0.1034
      5 C         140.3885  143.3253  164.7369 C.3     1  UNL1        0.1687
      6 C         141.8727  143.2364  164.5389 C.3     1  UNL1        0.0609
      7 C         142.7594  142.8392  165.6817 C.3     1  UNL1        0.0759
      8 N         142.1619  142.5309  167.0226 N.3     1  UNL1       -0.2704
      9 C         140.6777  142.6198  167.2206 C.3     1  UNL1        0.0759
     10 C         139.7910  143.0170  166.0779 C.3     1  UNL1        0.0609
     11 O         139.5018  143.7225  163.5942 O.3     1  UNL1       -0.4782
     12 C         137.5371  139.7128  160.9366 C.3     1  UNL1        0.0329
     13 C         138.4767  140.8789  161.0225 C.ar    1  UNL1        0.0023
     14 C         139.3736  141.2062  159.8657 C.ar    1  UNL1        0.0547
     15 CL        139.3309  140.3674  158.6228 Cl      1  UNL1       -0.0825
     16 C         140.3132  142.3722  159.9516 C.ar    1  UNL1        0.0142
     17 C         140.3559  143.2110  161.1945 C.ar    1  UNL1        0.0386
     18 C         139.4590  142.8837  162.3513 C.ar    1  UNL1        0.1485
     19 C         138.5195  141.7177  162.2654 C.ar    1  UNL1        0.0884
     20 CL        137.6225  141.3903  163.4223 Cl      1  UNL1       -0.0794
     21 C         142.6990  139.5689  168.3881 C.3     1  UNL1        0.1204
     22 N         142.0983  139.3580  167.0299 N.am    1  UNL1       -0.2985
     23 C         142.8501  138.5818  165.9896 C.2     1  UNL1        0.2469
     24 O         144.2026  138.0164  166.3075 O.2     1  UNL1       -0.2701
     25 H         141.2106  139.7291  166.8212 H       1  UNL1        0.1498
     26 C         142.2494  138.3709  164.6314 C.2     1  UNL1        0.0665
     27 C         141.1759  137.3414  164.4377 C.2     1  UNL1        0.0931
     28 N         140.5752  137.1305  163.0795 N.am    1  UNL1       -0.1740
     29 C         141.0480  137.9492  161.9150 C.2     1  UNL1        0.2688
     30 O         140.4474  137.7383  160.5568 O.2     1  UNL1       -0.2680
     31 C         142.1216  138.9788  162.1087 C.2     1  UNL1        0.0532
     32 C         142.5944  139.7974  160.9441 C.2     1  UNL1        0.0223
     33 C         143.6679  140.8270  161.1378 C.2     1  UNL1        0.1019
     34 C         144.2686  141.0379  162.4960 C.2     1  UNL1       -0.0031
     35 C         143.7958  140.2192  163.6605 C.3     1  UNL1        0.0540
     36 C         142.7223  139.1897  163.4669 C.2     1  UNL1       -0.0076
     37 S         144.1408  141.6457  159.9732 S.O2    1  UNL1        0.0102
     38 C         144.6137  142.4644  158.8088 C.3     1  UNL1        0.1816
     39 O         143.3702  140.7613  159.0385 O.2     1  UNL1       -0.1686
     40 O         144.9115  142.5301  160.9080 O.2     1  UNL1       -0.1686
@<TRIPOS>BOND
     1    12    13    1
     2    13    14   ar
     3    14    15    1
     4    14    16   ar
     5    16    17   ar
     6    17    18   ar
     7    18    11    1
     8    11     5    1
     9     5     6    1
    10     6     7    1
    11     7     8    1
    12     8     4    1
    13     4     1    1
    14     1     2    1
    15     1    21    1
    16    21    22    1
    17    22    23   am
    18    23    24    2
    19    23    26    1
    20    26    27    1
    21    27    28    2
    22    28    29    1
    23    29    30    2
    24    29    31    1
    25    31    32    2
    26    32    33    1
    27    33    37    1
    28    37    38    1
    29    37    39    2
    30    37    40    2
    31    33    34    2
    32    34    35    1
    33    35    36    1
    34     8     9    1
    35     9    10    1
    36    18    19   ar
    37    19    20    1
    38    19    13   ar
    39    10     5    1
    40    36    26    2
    41    36    31    1
    42     2     3    1
    43    22    25    1
