@<TRIPOS>MOLECULE
*****
 29 32 0 0 0
SMALL
GASTEIGER

@<TRIPOS>ATOM
      1 C         138.8351  145.3723  162.6043 C.3     1  UNL1        0.0281
      2 C         139.7775  144.2507  162.2821 C.3     1  UNL1        0.1170
      3 C         140.4800  144.2184  160.9572 C.ar    1  UNL1        0.0907
      4 N         140.4428  145.1455  159.7786 N.ar    1  UNL1       -0.2267
      5 C         141.3622  144.5968  158.7281 C.ar    1  UNL1        0.1834
      6 N         141.9676  143.3305  159.2574 N.ar    1  UNL1       -0.2768
      7 C         141.4224  143.0967  160.6351 C.ar    1  UNL1        0.0610
      8 C         141.6623  142.0073  161.6379 C.3     1  UNL1        0.0670
      9 C         140.9597  142.0396  162.9628 C.3     1  UNL1        0.1003
     10 N         140.0174  143.1612  163.2849 N.am    1  UNL1       -0.2720
     11 C         139.3149  143.1935  164.6099 C.2     1  UNL1        0.2501
     12 O         138.3725  144.3152  164.9320 O.2     1  UNL1       -0.2699
     13 C         139.5547  142.1041  165.6128 C.ar    1  UNL1        0.0641
     14 C         140.4802  142.3399  166.7694 C.ar    1  UNL1        0.0054
     15 C         140.7200  141.2504  167.7723 C.ar    1  UNL1        0.0001
     16 C         140.0345  139.9252  167.6184 C.ar    1  UNL1        0.0047
     17 C         139.1090  139.6894  166.4616 C.ar    1  UNL1        0.0821
     18 C         138.8691  140.7788  165.4588 C.ar    1  UNL1        0.0659
     19 CL        137.9436  140.5429  164.3022 Cl      1  UNL1       -0.0822
     20 C         138.4234  138.3641  166.3078 C.3     1  UNL1        0.4194
     21 F         137.7378  137.0389  166.1540 F       1  UNL1       -0.1658
     22 F         139.5462  137.8844  165.4365 F       1  UNL1       -0.1658
     23 F         137.3006  138.8438  167.1791 F       1  UNL1       -0.1658
     24 C         142.9464  142.4524  158.5357 C.ar    1  UNL1        0.1486
     25 C         142.5415  141.0737  158.1055 C.ar    1  UNL1        0.0375
     26 C         143.5203  140.1954  157.3838 C.ar    1  UNL1        0.0047
     27 C         144.9039  140.6960  157.0924 C.ar    1  UNL1        0.0208
     28 C         145.3088  142.0748  157.5227 C.ar    1  UNL1        0.1005
     29 N         144.3301  142.9530  158.2443 N.ar    1  UNL1       -0.2264
@<TRIPOS>BOND
     1     2     1    1
     2     2     3    1
     3     3     4   ar
     4     4     5   ar
     5     5     6   ar
     6     6    24    1
     7    24    25   ar
     8    25    26   ar
     9    26    27   ar
    10    27    28   ar
    11    28    29   ar
    12     6     7   ar
    13     7     8    1
    14     8     9    1
    15     9    10    1
    16    10    11   am
    17    11    12    2
    18    11    13    1
    19    13    14   ar
    20    14    15   ar
    21    15    16   ar
    22    16    17   ar
    23    17    20    1
    24    20    21    1
    25    20    22    1
    26    20    23    1
    27    17    18   ar
    28    18    19    1
    29    10     2    1
    30    18    13   ar
    31     7     3   ar
    32    29    24   ar
@<TRIPOS>MOLECULE
*****
 29 32 0 0 0
SMALL
GASTEIGER

@<TRIPOS>ATOM
      1 C         138.0137  138.0991  162.0190 C.3     1  UNL1        0.0281
      2 C         138.9775  139.2449  161.9277 C.3     1  UNL1        0.1170
      3 C         138.9617  140.1445  160.7275 C.ar    1  UNL1        0.0907
      4 N         138.1173  140.1492  159.4878 N.ar    1  UNL1       -0.2267
      5 C         138.5593  141.2979  158.6303 C.ar    1  UNL1        0.1834
      6 N         139.6768  142.0031  159.3401 N.ar    1  UNL1       -0.2768
      7 C         139.9255  141.2903  160.6362 C.ar    1  UNL1        0.0610
      8 C         140.9051  141.5364  161.7452 C.3     1  UNL1        0.0670
      9 C         140.9209  140.6369  162.9454 C.3     1  UNL1        0.1003
     10 N         139.9572  139.4912  163.0366 N.am    1  UNL1       -0.2720
     11 C         139.9730  138.5915  164.2369 C.2     1  UNL1        0.2501
     12 O         139.0092  137.4457  164.3281 O.2     1  UNL1       -0.2699
     13 C         140.9526  138.8377  165.3458 C.ar    1  UNL1        0.0641
     14 C         142.3341  138.2586  165.2684 C.ar    1  UNL1        0.0054
     15 C         143.3137  138.5049  166.3775 C.ar    1  UNL1        0.0001
     16 C         142.9118  139.3300  167.5637 C.ar    1  UNL1        0.0047
     17 C         141.5302  139.9091  167.6411 C.ar    1  UNL1        0.0821
     18 C         140.5506  139.6629  166.5322 C.ar    1  UNL1        0.0659
     19 CL        139.1690  140.2420  166.6096 Cl      1  UNL1       -0.0822
     20 C         141.1282  140.7344  168.8275 C.3     1  UNL1        0.4194
     21 F         140.7263  141.5596  170.0139 F       1  UNL1       -0.1658
     22 F         141.5809  141.9757  168.1174 F       1  UNL1       -0.1658
     23 F         140.6755  139.4930  169.5376 F       1  UNL1       -0.1658
     24 C         140.4158  143.2094  158.8413 C.ar    1  UNL1        0.1486
     25 C         141.8409  143.0826  158.3908 C.ar    1  UNL1        0.0375
     26 C         142.5800  144.2889  157.8919 C.ar    1  UNL1        0.0047
     27 C         141.8939  145.6218  157.8437 C.ar    1  UNL1        0.0208
     28 C         140.4687  145.7486  158.2942 C.ar    1  UNL1        0.1005
     29 N         139.7297  144.5424  158.7930 N.ar    1  UNL1       -0.2264
@<TRIPOS>BOND
     1     2     1    1
     2     2     3    1
     3     3     4   ar
     4     4     5   ar
     5     5     6   ar
     6     6    24    1
     7    24    25   ar
     8    25    26   ar
     9    26    27   ar
    10    27    28   ar
    11    28    29   ar
    12     6     7   ar
    13     7     8    1
    14     8     9    1
    15     9    10    1
    16    10    11   am
    17    11    12    2
    18    11    13    1
    19    13    14   ar
    20    14    15   ar
    21    15    16   ar
    22    16    17   ar
    23    17    20    1
    24    20    21    1
    25    20    22    1
    26    20    23    1
    27    17    18   ar
    28    18    19    1
    29    10     2    1
    30    18    13   ar
    31     7     3   ar
    32    29    24   ar
@<TRIPOS>MOLECULE
*****
 29 32 0 0 0
SMALL
GASTEIGER

@<TRIPOS>ATOM
      1 C         143.7294  137.9477  160.9017 C.3     1  UNL1        0.0281
      2 C         142.3458  138.1732  160.3681 C.3     1  UNL1        0.1170
      3 C         142.0810  138.0557  158.8963 C.ar    1  UNL1        0.0907
      4 N         142.9777  137.7331  157.7379 N.ar    1  UNL1       -0.2267
      5 C         142.1482  137.7592  156.4884 C.ar    1  UNL1        0.1834
      6 N         140.7389  138.0980  156.8746 N.ar    1  UNL1       -0.2768
      7 C         140.6974  138.2813  158.3628 C.ar    1  UNL1        0.0610
      8 C         139.5785  138.6244  159.3010 C.3     1  UNL1        0.0670
      9 C         139.8432  138.7419  160.7727 C.3     1  UNL1        0.1003
     10 N         141.2267  138.5163  161.3063 N.am    1  UNL1       -0.2720
     11 C         141.4914  138.6339  162.7781 C.2     1  UNL1        0.2501
     12 O         142.8751  138.4083  163.3117 O.2     1  UNL1       -0.2699
     13 C         140.3725  138.9770  163.7163 C.ar    1  UNL1        0.0641
     14 C         139.7533  137.9084  164.5676 C.ar    1  UNL1        0.0054
     15 C         138.6343  138.2516  165.5059 C.ar    1  UNL1        0.0001
     16 C         138.1347  139.6632  165.5928 C.ar    1  UNL1        0.0047
     17 C         138.7540  140.7318  164.7415 C.ar    1  UNL1        0.0821
     18 C         139.8729  140.3887  163.8032 C.ar    1  UNL1        0.0659
     19 CL        140.4922  141.4572  162.9520 Cl      1  UNL1       -0.0822
     20 C         138.2543  142.1434  164.8284 C.3     1  UNL1        0.4194
     21 F         137.7546  143.5551  164.9154 F       1  UNL1       -0.1658
     22 F         139.2997  142.4499  165.8595 F       1  UNL1       -0.1658
     23 F         137.2089  141.8369  163.7973 F       1  UNL1       -0.1658
     24 C         139.5754  138.2304  155.9371 C.ar    1  UNL1        0.1486
     25 C         139.3088  137.1632  154.9174 C.ar    1  UNL1        0.0375
     26 C         138.1453  137.2955  153.9799 C.ar    1  UNL1        0.0047
     27 C         137.2485  138.4949  154.0622 C.ar    1  UNL1        0.0208
     28 C         137.5152  139.5622  155.0820 C.ar    1  UNL1        0.1005
     29 N         138.6786  139.4299  156.0194 N.ar    1  UNL1       -0.2264
@<TRIPOS>BOND
     1     2     1    1
     2     2     3    1
     3     3     4   ar
     4     4     5   ar
     5     5     6   ar
     6     6    24    1
     7    24    25   ar
     8    25    26   ar
     9    26    27   ar
    10    27    28   ar
    11    28    29   ar
    12     6     7   ar
    13     7     8    1
    14     8     9    1
    15     9    10    1
    16    10    11   am
    17    11    12    2
    18    11    13    1
    19    13    14   ar
    20    14    15   ar
    21    15    16   ar
    22    16    17   ar
    23    17    20    1
    24    20    21    1
    25    20    22    1
    26    20    23    1
    27    17    18   ar
    28    18    19    1
    29    10     2    1
    30    18    13   ar
    31     7     3   ar
    32    29    24   ar
@<TRIPOS>MOLECULE
*****
 29 32 0 0 0
SMALL
GASTEIGER

@<TRIPOS>ATOM
      1 C         138.9504  145.3608  162.6282 C.3     1  UNL1        0.0281
      2 C         139.7595  144.1695  162.2083 C.3     1  UNL1        0.1170
      3 C         140.5799  144.2245  160.9538 C.ar    1  UNL1        0.0907
      4 N         140.7867  145.3071  159.9364 N.ar    1  UNL1       -0.2267
      5 C         141.7235  144.7850  158.8878 C.ar    1  UNL1        0.1834
      6 N         142.0958  143.3796  159.2571 N.ar    1  UNL1       -0.2768
      7 C         141.3890  143.0332  160.5340 C.ar    1  UNL1        0.0610
      8 C         141.3776  141.7869  161.3686 C.3     1  UNL1        0.0670
      9 C         140.5571  141.7320  162.6231 C.3     1  UNL1        0.1003
     10 N         139.7481  142.9232  163.0430 N.am    1  UNL1       -0.2720
     11 C         138.9276  142.8682  164.2976 C.2     1  UNL1        0.2501
     12 O         138.1185  144.0595  164.7174 O.2     1  UNL1       -0.2699
     13 C         138.9162  141.6219  165.1322 C.ar    1  UNL1        0.0641
     14 C         138.1113  140.4340  164.6953 C.ar    1  UNL1        0.0054
     15 C         138.0999  139.1877  165.5300 C.ar    1  UNL1        0.0001
     16 C         138.8934  139.1294  166.8016 C.ar    1  UNL1        0.0047
     17 C         139.6983  140.3174  167.2385 C.ar    1  UNL1        0.0821
     18 C         139.7097  141.5637  166.4038 C.ar    1  UNL1        0.0659
     19 CL        140.5146  142.7516  166.8408 Cl      1  UNL1       -0.0822
     20 C         140.4918  140.2591  168.5101 C.3     1  UNL1        0.4194
     21 F         141.2853  140.2008  169.7817 F       1  UNL1       -0.1658
     22 F         139.2752  140.6651  169.2879 F       1  UNL1       -0.1658
     23 F         141.7084  139.8531  167.7323 F       1  UNL1       -0.1658
     24 C         143.0136  142.4788  158.4850 C.ar    1  UNL1        0.1486
     25 C         142.5058  141.1743  157.9461 C.ar    1  UNL1        0.0375
     26 C         143.4237  140.2735  157.1740 C.ar    1  UNL1        0.0047
     27 C         144.8493  140.6771  156.9408 C.ar    1  UNL1        0.0208
     28 C         145.3572  141.9817  157.4798 C.ar    1  UNL1        0.1005
     29 N         144.4394  142.8825  158.2518 N.ar    1  UNL1       -0.2264
@<TRIPOS>BOND
     1     2     1    1
     2     2     3    1
     3     3     4   ar
     4     4     5   ar
     5     5     6   ar
     6     6    24    1
     7    24    25   ar
     8    25    26   ar
     9    26    27   ar
    10    27    28   ar
    11    28    29   ar
    12     6     7   ar
    13     7     8    1
    14     8     9    1
    15     9    10    1
    16    10    11   am
    17    11    12    2
    18    11    13    1
    19    13    14   ar
    20    14    15   ar
    21    15    16   ar
    22    16    17   ar
    23    17    20    1
    24    20    21    1
    25    20    22    1
    26    20    23    1
    27    17    18   ar
    28    18    19    1
    29    10     2    1
    30    18    13   ar
    31     7     3   ar
    32    29    24   ar
@<TRIPOS>MOLECULE
*****
 29 32 0 0 0
SMALL
GASTEIGER

@<TRIPOS>ATOM
      1 C         137.6603  138.1000  161.6905 C.3     1  UNL1        0.0281
      2 C         138.5578  139.2975  161.5875 C.3     1  UNL1        0.1170
      3 C         138.5061  140.1711  160.3692 C.ar    1  UNL1        0.0907
      4 N         137.6790  140.1029  159.1197 N.ar    1  UNL1       -0.2267
      5 C         138.0654  141.2582  158.2445 C.ar    1  UNL1        0.1834
      6 N         139.1313  142.0404  158.9531 N.ar    1  UNL1       -0.2768
      7 C         139.4036  141.3685  160.2663 C.ar    1  UNL1        0.0610
      8 C         140.3530  141.6923  161.3816 C.3     1  UNL1        0.0670
      9 C         140.4047  140.8187  162.5998 C.3     1  UNL1        0.1003
     10 N         139.5072  139.6214  162.7028 N.am    1  UNL1       -0.2720
     11 C         139.5590  138.7477  163.9211 C.2     1  UNL1        0.2501
     12 O         138.6614  137.5503  164.0241 O.2     1  UNL1       -0.2699
     13 C         140.5083  139.0715  165.0364 C.ar    1  UNL1        0.0641
     14 C         140.0188  139.8081  166.2479 C.ar    1  UNL1        0.0054
     15 C         140.9682  140.1319  167.3633 C.ar    1  UNL1        0.0001
     16 C         142.4070  139.7192  167.2670 C.ar    1  UNL1        0.0047
     17 C         142.8966  138.9825  166.0554 C.ar    1  UNL1        0.0821
     18 C         141.9472  138.6587  164.9401 C.ar    1  UNL1        0.0659
     19 CL        142.4368  137.9221  163.7286 Cl      1  UNL1       -0.0822
     20 C         144.3354  138.5698  165.9592 C.3     1  UNL1        0.4194
     21 F         145.7743  138.1570  165.8630 F       1  UNL1       -0.1658
     22 F         144.6099  139.7366  165.0575 F       1  UNL1       -0.1658
     23 F         144.0610  137.4030  166.8610 F       1  UNL1       -0.1658
     24 C         139.8063  143.2772  158.4389 C.ar    1  UNL1        0.1486
     25 C         140.5268  143.2467  157.1236 C.ar    1  UNL1        0.0375
     26 C         141.2019  144.4836  156.6093 C.ar    1  UNL1        0.0047
     27 C         141.1563  145.7510  157.4102 C.ar    1  UNL1        0.0208
     28 C         140.4357  145.7815  158.7255 C.ar    1  UNL1        0.1005
     29 N         139.7607  144.5447  159.2398 N.ar    1  UNL1       -0.2264
@<TRIPOS>BOND
     1     2     1    1
     2     2     3    1
     3     3     4   ar
     4     4     5   ar
     5     5     6   ar
     6     6    24    1
     7    24    25   ar
     8    25    26   ar
     9    26    27   ar
    10    27    28   ar
    11    28    29   ar
    12     6     7   ar
    13     7     8    1
    14     8     9    1
    15     9    10    1
    16    10    11   am
    17    11    12    2
    18    11    13    1
    19    13    14   ar
    20    14    15   ar
    21    15    16   ar
    22    16    17   ar
    23    17    20    1
    24    20    21    1
    25    20    22    1
    26    20    23    1
    27    17    18   ar
    28    18    19    1
    29    10     2    1
    30    18    13   ar
    31     7     3   ar
    32    29    24   ar
@<TRIPOS>MOLECULE
*****
 29 32 0 0 0
SMALL
GASTEIGER

@<TRIPOS>ATOM
      1 C         143.7061  141.8396  159.4347 C.3     1  UNL1        0.0281
      2 C         143.3689  140.3811  159.5303 C.3     1  UNL1        0.1170
      3 C         143.2751  139.5498  158.2852 C.ar    1  UNL1        0.0907
      4 N         143.4613  139.8885  156.8359 N.ar    1  UNL1       -0.2267
      5 C         143.2393  138.6393  156.0358 C.ar    1  UNL1        0.1834
      6 N         142.9158  137.5285  156.9906 N.ar    1  UNL1       -0.2768
      7 C         142.9380  138.0913  158.3809 C.ar    1  UNL1        0.0610
      8 C         142.6947  137.4641  159.7216 C.3     1  UNL1        0.0670
      9 C         142.7886  138.2953  160.9666 C.3     1  UNL1        0.1003
     10 N         143.1257  139.7538  160.8710 N.am    1  UNL1       -0.2720
     11 C         143.2195  140.5851  162.1161 C.2     1  UNL1        0.2501
     12 O         143.5566  142.0436  162.0205 O.2     1  UNL1       -0.2699
     13 C         142.9763  139.9579  163.4568 C.ar    1  UNL1        0.0641
     14 C         144.1274  139.4160  164.2512 C.ar    1  UNL1        0.0054
     15 C         143.8841  138.7888  165.5920 C.ar    1  UNL1        0.0001
     16 C         142.4898  138.7034  166.1381 C.ar    1  UNL1        0.0047
     17 C         141.3386  139.2454  165.3436 C.ar    1  UNL1        0.0821
     18 C         141.5818  139.8726  164.0029 C.ar    1  UNL1        0.0659
     19 CL        140.4306  140.4144  163.2085 Cl      1  UNL1       -0.0822
     20 C         139.9441  139.1600  165.8898 C.3     1  UNL1        0.4194
     21 F         138.5497  139.0747  166.4360 F       1  UNL1       -0.1658
     22 F         139.7900  137.7967  165.2834 F       1  UNL1       -0.1658
     23 F         140.0982  140.5233  166.4962 F       1  UNL1       -0.1658
     24 C         142.6219  136.1050  156.6202 C.ar    1  UNL1        0.1486
     25 C         141.5830  135.7994  155.5823 C.ar    1  UNL1        0.0375
     26 C         141.2890  134.3758  155.2118 C.ar    1  UNL1        0.0047
     27 C         142.0339  133.2581  155.8792 C.ar    1  UNL1        0.0208
     28 C         143.0728  133.5638  156.9172 C.ar    1  UNL1        0.1005
     29 N         143.3668  134.9872  157.2877 N.ar    1  UNL1       -0.2264
@<TRIPOS>BOND
     1     2     1    1
     2     2     3    1
     3     3     4   ar
     4     4     5   ar
     5     5     6   ar
     6     6    24    1
     7    24    25   ar
     8    25    26   ar
     9    26    27   ar
    10    27    28   ar
    11    28    29   ar
    12     6     7   ar
    13     7     8    1
    14     8     9    1
    15     9    10    1
    16    10    11   am
    17    11    12    2
    18    11    13    1
    19    13    14   ar
    20    14    15   ar
    21    15    16   ar
    22    16    17   ar
    23    17    20    1
    24    20    21    1
    25    20    22    1
    26    20    23    1
    27    17    18   ar
    28    18    19    1
    29    10     2    1
    30    18    13   ar
    31     7     3   ar
    32    29    24   ar
@<TRIPOS>MOLECULE
*****
 29 32 0 0 0
SMALL
GASTEIGER

@<TRIPOS>ATOM
      1 C         143.5268  145.0261  163.0677 C.3     1  UNL1        0.0281
      2 C         142.7147  143.8777  162.5463 C.3     1  UNL1        0.1170
      3 C         141.9671  144.0138  161.2531 C.ar    1  UNL1        0.0907
      4 N         141.8428  145.1487  160.2803 N.ar    1  UNL1       -0.2267
      5 C         140.9540  144.7017  159.1577 C.ar    1  UNL1        0.1834
      6 N         140.5289  143.2905  159.4368 N.ar    1  UNL1       -0.2768
      7 C         141.1550  142.8654  160.7319 C.ar    1  UNL1        0.0610
      8 C         141.0906  141.5809  161.5038 C.3     1  UNL1        0.0670
      9 C         141.8383  141.4448  162.7970 C.3     1  UNL1        0.1003
     10 N         142.6503  142.5932  163.3183 N.am    1  UNL1       -0.2720
     11 C         143.3980  142.4571  164.6116 C.2     1  UNL1        0.2501
     12 O         144.2101  143.6055  165.1329 O.2     1  UNL1       -0.2699
     13 C         143.3337  141.1726  165.3836 C.ar    1  UNL1        0.0641
     14 C         144.0389  139.9526  164.8696 C.ar    1  UNL1        0.0054
     15 C         143.9745  138.6680  165.6417 C.ar    1  UNL1        0.0001
     16 C         143.2049  138.6036  166.9275 C.ar    1  UNL1        0.0047
     17 C         142.4996  139.8237  167.4414 C.ar    1  UNL1        0.0821
     18 C         142.5640  141.1082  166.6695 C.ar    1  UNL1        0.0659
     19 CL        141.8588  142.3282  167.1834 Cl      1  UNL1       -0.0822
     20 C         141.7300  139.7593  168.7274 C.3     1  UNL1        0.4194
     21 F         140.9604  139.6948  170.0133 F       1  UNL1       -0.1658
     22 F         143.0058  139.9234  169.4991 F       1  UNL1       -0.1658
     23 F         140.4543  139.5952  167.9556 F       1  UNL1       -0.1658
     24 C         139.6347  142.4518  158.5726 C.ar    1  UNL1        0.1486
     25 C         140.1166  141.1285  158.0565 C.ar    1  UNL1        0.0375
     26 C         139.2224  140.2897  157.1922 C.ar    1  UNL1        0.0047
     27 C         137.8463  140.7743  156.8441 C.ar    1  UNL1        0.0208
     28 C         137.3643  142.0978  157.3602 C.ar    1  UNL1        0.1005
     29 N         138.2584  142.9365  158.2244 N.ar    1  UNL1       -0.2264
@<TRIPOS>BOND
     1     2     1    1
     2     2     3    1
     3     3     4   ar
     4     4     5   ar
     5     5     6   ar
     6     6    24    1
     7    24    25   ar
     8    25    26   ar
     9    26    27   ar
    10    27    28   ar
    11    28    29   ar
    12     6     7   ar
    13     7     8    1
    14     8     9    1
    15     9    10    1
    16    10    11   am
    17    11    12    2
    18    11    13    1
    19    13    14   ar
    20    14    15   ar
    21    15    16   ar
    22    16    17   ar
    23    17    20    1
    24    20    21    1
    25    20    22    1
    26    20    23    1
    27    17    18   ar
    28    18    19    1
    29    10     2    1
    30    18    13   ar
    31     7     3   ar
    32    29    24   ar
@<TRIPOS>MOLECULE
*****
 29 32 0 0 0
SMALL
GASTEIGER

@<TRIPOS>ATOM
      1 C         140.1265  141.5536  157.5823 C.3     1  UNL1        0.0281
      2 C         140.1973  143.0347  157.8085 C.3     1  UNL1        0.1170
      3 C         139.7527  143.9800  156.7321 C.ar    1  UNL1        0.0907
      4 N         139.2037  143.7471  155.3558 N.ar    1  UNL1       -0.2267
      5 C         138.9352  145.0844  154.7315 C.ar    1  UNL1        0.1834
      6 N         139.3183  146.1437  155.7220 N.ar    1  UNL1       -0.2768
      7 C         139.8236  145.4612  156.9584 C.ar    1  UNL1        0.0610
      8 C         140.3390  145.9970  158.2612 C.3     1  UNL1        0.0670
      9 C         140.7836  145.0517  159.3376 C.3     1  UNL1        0.1003
     10 N         140.7128  143.5707  159.1113 N.am    1  UNL1       -0.2720
     11 C         141.1574  142.6253  160.1878 C.2     1  UNL1        0.2501
     12 O         141.0865  141.1442  159.9615 O.2     1  UNL1       -0.2699
     13 C         141.6728  143.1611  161.4906 C.ar    1  UNL1        0.0641
     14 C         143.1017  143.6025  161.6073 C.ar    1  UNL1        0.0054
     15 C         143.6171  144.1383  162.9101 C.ar    1  UNL1        0.0001
     16 C         142.7037  144.2328  164.0961 C.ar    1  UNL1        0.0047
     17 C         141.2748  143.7915  163.9794 C.ar    1  UNL1        0.0821
     18 C         140.7594  143.2556  162.6767 C.ar    1  UNL1        0.0659
     19 CL        139.3305  142.8143  162.5600 Cl      1  UNL1       -0.0822
     20 C         140.3614  143.8860  165.1655 C.3     1  UNL1        0.4194
     21 F         139.4480  143.9805  166.3516 F       1  UNL1       -0.1658
     22 F         139.7720  145.1489  164.6110 F       1  UNL1       -0.1658
     23 F         140.9508  142.6230  165.7200 F       1  UNL1       -0.1658
     24 C         139.2144  147.6254  155.5127 C.ar    1  UNL1        0.1486
     25 C         139.7762  148.2484  154.2692 C.ar    1  UNL1        0.0375
     26 C         139.6723  149.7301  154.0599 C.ar    1  UNL1        0.0047
     27 C         139.0066  150.5888  155.0940 C.ar    1  UNL1        0.0208
     28 C         138.4448  149.9657  156.3375 C.ar    1  UNL1        0.1005
     29 N         138.5487  148.4841  156.5469 N.ar    1  UNL1       -0.2264
@<TRIPOS>BOND
     1     2     1    1
     2     2     3    1
     3     3     4   ar
     4     4     5   ar
     5     5     6   ar
     6     6    24    1
     7    24    25   ar
     8    25    26   ar
     9    26    27   ar
    10    27    28   ar
    11    28    29   ar
    12     6     7   ar
    13     7     8    1
    14     8     9    1
    15     9    10    1
    16    10    11   am
    17    11    12    2
    18    11    13    1
    19    13    14   ar
    20    14    15   ar
    21    15    16   ar
    22    16    17   ar
    23    17    20    1
    24    20    21    1
    25    20    22    1
    26    20    23    1
    27    17    18   ar
    28    18    19    1
    29    10     2    1
    30    18    13   ar
    31     7     3   ar
    32    29    24   ar
@<TRIPOS>MOLECULE
*****
 29 32 0 0 0
SMALL
GASTEIGER

@<TRIPOS>ATOM
      1 C         138.6980  138.7646  162.9336 C.3     1  UNL1        0.0281
      2 C         139.6091  139.7658  163.5798 C.3     1  UNL1        0.1170
      3 C         139.6720  139.8673  165.0751 C.ar    1  UNL1        0.0907
      4 N         138.9591  139.1197  166.1626 N.ar    1  UNL1       -0.2267
      5 C         139.4297  139.6589  167.4809 C.ar    1  UNL1        0.1834
      6 N         140.4333  140.7397  167.2081 N.ar    1  UNL1       -0.2768
      7 C         140.5831  140.8685  165.7211 C.ar    1  UNL1        0.0610
      8 C         141.4314  141.7682  164.8720 C.3     1  UNL1        0.0670
      9 C         141.3686  141.6666  163.3768 C.3     1  UNL1        0.1003
     10 N         140.4575  140.6655  162.7307 N.am    1  UNL1       -0.2720
     11 C         140.3946  140.5639  161.2354 C.2     1  UNL1        0.2501
     12 O         139.4835  139.5627  160.5893 O.2     1  UNL1       -0.2699
     13 C         141.2429  141.4635  160.3863 C.ar    1  UNL1        0.0641
     14 C         142.6488  141.0668  160.0456 C.ar    1  UNL1        0.0054
     15 C         143.4971  141.9665  159.1964 C.ar    1  UNL1        0.0001
     16 C         142.9395  143.2628  158.6880 C.ar    1  UNL1        0.0047
     17 C         141.5336  143.6595  159.0287 C.ar    1  UNL1        0.0821
     18 C         140.6853  142.7599  159.8778 C.ar    1  UNL1        0.0659
     19 CL        139.2794  143.1566  160.2185 Cl      1  UNL1       -0.0822
     20 C         140.9760  144.9559  158.5202 C.3     1  UNL1        0.4194
     21 F         140.4184  146.2523  158.0117 F       1  UNL1       -0.1658
     22 F         140.5738  144.2816  157.2421 F       1  UNL1       -0.1658
     23 F         141.3781  145.6302  159.7983 F       1  UNL1       -0.1658
     24 C         141.1597  141.5495  168.2408 C.ar    1  UNL1        0.1486
     25 C         140.4656  142.6905  168.9236 C.ar    1  UNL1        0.0375
     26 C         141.1920  143.5004  169.9564 C.ar    1  UNL1        0.0047
     27 C         142.6124  143.1691  170.3064 C.ar    1  UNL1        0.0208
     28 C         143.3065  142.0280  169.6236 C.ar    1  UNL1        0.1005
     29 N         142.5802  141.2182  168.5909 N.ar    1  UNL1       -0.2264
@<TRIPOS>BOND
     1     2     1    1
     2     2     3    1
     3     3     4   ar
     4     4     5   ar
     5     5     6   ar
     6     6    24    1
     7    24    25   ar
     8    25    26   ar
     9    26    27   ar
    10    27    28   ar
    11    28    29   ar
    12     6     7   ar
    13     7     8    1
    14     8     9    1
    15     9    10    1
    16    10    11   am
    17    11    12    2
    18    11    13    1
    19    13    14   ar
    20    14    15   ar
    21    15    16   ar
    22    16    17   ar
    23    17    20    1
    24    20    21    1
    25    20    22    1
    26    20    23    1
    27    17    18   ar
    28    18    19    1
    29    10     2    1
    30    18    13   ar
    31     7     3   ar
    32    29    24   ar
