@<TRIPOS>MOLECULE
*****
 40 43 0 0 0
SMALL
GASTEIGER

@<TRIPOS>ATOM
      1 C         142.6077  140.2651  159.1444 C.ar    1  UNL1        0.2434
      2 N         141.7201  140.2406  157.9354 N.ar    1  UNL1       -0.2088
      3 C         141.4448  138.9439  157.2332 C.ar    1  UNL1        0.1022
      4 C         142.0572  137.6719  157.7400 C.ar    1  UNL1        0.0222
      5 C         142.9448  137.6964  158.9490 C.ar    1  UNL1        0.0211
      6 C         143.2200  138.9929  159.6512 C.ar    1  UNL1        0.1058
      7 N         144.1076  139.0174  160.8601 N.am    1  UNL1       -0.2643
      8 C         143.5235  139.2932  162.2139 C.2     1  UNL1        0.3083
      9 O         142.0518  139.5444  162.3587 O.2     1  UNL1       -0.2521
     10 N         144.4111  139.3177  163.4229 N.am    1  UNL1       -0.2681
     11 H         145.0735  138.8526  160.7651 H       1  UNL1        0.1566
     12 H         145.3770  139.1528  163.3278 H       1  UNL1        0.1564
     13 C         143.8270  139.5934  164.7766 C.ar    1  UNL1        0.0518
     14 C         143.6261  138.4697  165.7499 C.ar    1  UNL1        0.0178
     15 C         143.0421  138.7454  167.1036 C.ar    1  UNL1        0.0385
     16 C         142.6588  140.1448  167.4843 C.ar    1  UNL1        0.1469
     17 C         142.8597  141.2685  166.5112 C.ar    1  UNL1        0.0385
     18 C         143.4438  140.9928  165.1573 C.ar    1  UNL1        0.0178
     19 O         142.0747  140.4205  168.8381 O.3     1  UNL1       -0.4045
     20 C         142.8009  139.9757  170.0730 C.3     1  UNL1        0.5753
     21 F         143.5270  139.5310  171.3078 F       1  UNL1       -0.1328
     22 F         141.8448  138.8297  170.2225 F       1  UNL1       -0.1328
     23 F         143.7570  141.1218  169.9235 F       1  UNL1       -0.1328
     24 O         142.8829  141.5616  159.8466 O.3     1  UNL1       -0.4354
     25 C         140.9645  143.3102  159.9571 C.ar    1  UNL1        0.0122
     26 C         140.3330  144.5786  159.4647 C.ar    1  UNL1       -0.0013
     27 C         140.9883  145.3668  158.3696 C.ar    1  UNL1       -0.0001
     28 C         142.2751  144.8866  157.7668 C.ar    1  UNL1        0.0031
     29 C         142.9066  143.6182  158.2591 C.ar    1  UNL1        0.0372
     30 C         142.2513  142.8301  159.3542 C.ar    1  UNL1        0.1432
     31 N         138.9985  140.9457  163.2425 N.3     1  UNL1       -0.2727
     32 C         139.9504  142.0540  163.5824 C.3     1  UNL1        0.0724
     33 C         140.6057  142.8422  162.4873 C.3     1  UNL1        0.0218
     34 C         140.3092  142.5221  161.0522 C.3     1  UNL1        0.0281
     35 C         139.3573  141.4138  160.7122 C.3     1  UNL1        0.0218
     36 C         138.7020  140.6256  161.8074 C.3     1  UNL1        0.0724
     37 C         138.3432  140.1576  164.3376 C.3     1  UNL1        0.0720
     38 C         140.0234  138.2359  164.8213 C.3     1  UNL1        0.0014
     39 C         139.1825  139.3791  165.3069 C.3     1  UNL1        0.0160
     40 C         139.1810  139.7440  166.7619 C.3     1  UNL1        0.0014
@<TRIPOS>BOND
     1    38    39    1
     2    39    40    1
     3    39    37    1
     4    37    31    1
     5    31    32    1
     6    32    33    1
     7    33    34    1
     8    34    25    1
     9    25    26   ar
    10    26    27   ar
    11    27    28   ar
    12    28    29   ar
    13    29    30   ar
    14    30    24    1
    15    24     1    1
    16     1     2   ar
    17     2     3   ar
    18     3     4   ar
    19     4     5   ar
    20     5     6   ar
    21     6     7    1
    22     7     8   am
    23     8     9    2
    24     8    10   am
    25    10    13    1
    26    13    14   ar
    27    14    15   ar
    28    15    16   ar
    29    16    19    1
    30    19    20    1
    31    20    21    1
    32    20    22    1
    33    20    23    1
    34    16    17   ar
    35    17    18   ar
    36    34    35    1
    37    35    36    1
    38    36    31    1
    39    30    25   ar
    40     6     1   ar
    41    18    13   ar
    42     7    11    1
    43    10    12    1
@<TRIPOS>MOLECULE
*****
 40 43 0 0 0
SMALL
GASTEIGER

@<TRIPOS>ATOM
      1 C         140.7105  139.0160  166.1403 C.ar    1  UNL1        0.2434
      2 N         139.6350  139.5035  167.0654 N.ar    1  UNL1       -0.2088
      3 C         138.2399  138.9662  166.9427 C.ar    1  UNL1        0.1022
      4 C         137.9203  137.9414  165.8950 C.ar    1  UNL1        0.0222
      5 C         138.9958  137.4539  164.9700 C.ar    1  UNL1        0.0211
      6 C         140.3908  137.9911  165.0926 C.ar    1  UNL1        0.1058
      7 N         141.4663  137.5036  164.1676 N.am    1  UNL1       -0.2643
      8 C         141.7187  138.2137  162.8707 C.2     1  UNL1        0.3083
      9 O         140.8957  139.4113  162.4988 O.2     1  UNL1       -0.2521
     10 N         142.7942  137.7261  161.9457 N.am    1  UNL1       -0.2681
     11 H         142.0065  136.7176  164.4117 H       1  UNL1        0.1566
     12 H         143.3344  136.9401  162.1898 H       1  UNL1        0.1564
     13 C         143.0467  138.4362  160.6488 C.ar    1  UNL1        0.0518
     14 C         143.8421  139.7079  160.6324 C.ar    1  UNL1        0.0178
     15 C         144.0946  140.4179  159.3354 C.ar    1  UNL1        0.0385
     16 C         143.5516  139.8564  158.0549 C.ar    1  UNL1        0.1469
     17 C         142.7561  138.5849  158.0712 C.ar    1  UNL1        0.0385
     18 C         142.5036  137.8747  159.3682 C.ar    1  UNL1        0.0178
     19 O         143.8040  140.5665  156.7580 O.3     1  UNL1       -0.4045
     20 C         145.1841  141.0501  156.4239 C.3     1  UNL1        0.5753
     21 F         146.5641  141.5337  156.0899 F       1  UNL1       -0.1328
     22 F         144.7993  142.4380  156.8431 F       1  UNL1       -0.1328
     23 F         145.5689  139.6623  156.0048 F       1  UNL1       -0.1328
     24 O         142.1056  139.5532  166.2630 O.3     1  UNL1       -0.4354
     25 C         142.7793  141.7606  167.4562 C.ar    1  UNL1        0.0122
     26 C         143.1952  142.4910  168.6985 C.ar    1  UNL1       -0.0013
     27 C         143.3532  141.7446  169.9900 C.ar    1  UNL1       -0.0001
     28 C         143.0953  140.2678  170.0392 C.ar    1  UNL1        0.0031
     29 C         142.6794  139.5374  168.7969 C.ar    1  UNL1        0.0372
     30 C         142.5214  140.2837  167.5054 C.ar    1  UNL1        0.1432
     31 N         142.3054  143.9997  163.5817 N.3     1  UNL1       -0.2727
     32 C         143.6743  143.6344  164.0742 C.3     1  UNL1        0.0724
     33 C         143.8323  142.8880  165.3657 C.3     1  UNL1        0.0218
     34 C         142.6213  142.5069  166.1647 C.3     1  UNL1        0.0281
     35 C         141.2524  142.8722  165.6722 C.3     1  UNL1        0.0218
     36 C         141.0945  143.6186  164.3807 C.3     1  UNL1        0.0724
     37 C         142.1474  144.7460  162.2902 C.3     1  UNL1        0.0720
     38 C         139.9647  146.1162  161.9607 C.3     1  UNL1        0.0014
     39 C         140.7889  144.8966  161.6723 C.3     1  UNL1        0.0160
     40 C         140.2546  143.8274  160.7659 C.3     1  UNL1        0.0014
@<TRIPOS>BOND
     1    38    39    1
     2    39    40    1
     3    39    37    1
     4    37    31    1
     5    31    32    1
     6    32    33    1
     7    33    34    1
     8    34    25    1
     9    25    26   ar
    10    26    27   ar
    11    27    28   ar
    12    28    29   ar
    13    29    30   ar
    14    30    24    1
    15    24     1    1
    16     1     2   ar
    17     2     3   ar
    18     3     4   ar
    19     4     5   ar
    20     5     6   ar
    21     6     7    1
    22     7     8   am
    23     8     9    2
    24     8    10   am
    25    10    13    1
    26    13    14   ar
    27    14    15   ar
    28    15    16   ar
    29    16    19    1
    30    19    20    1
    31    20    21    1
    32    20    22    1
    33    20    23    1
    34    16    17   ar
    35    17    18   ar
    36    34    35    1
    37    35    36    1
    38    36    31    1
    39    30    25   ar
    40     6     1   ar
    41    18    13   ar
    42     7    11    1
    43    10    12    1
@<TRIPOS>MOLECULE
*****
 40 43 0 0 0
SMALL
GASTEIGER

@<TRIPOS>ATOM
      1 C         141.4825  142.4252  159.9599 C.ar    1  UNL1        0.2434
      2 N         140.4315  142.9501  159.0271 N.ar    1  UNL1       -0.2088
      3 C         139.9861  144.3790  159.1269 C.ar    1  UNL1        0.1022
      4 C         140.5917  145.2830  160.1594 C.ar    1  UNL1        0.0222
      5 C         141.6427  144.7581  161.0922 C.ar    1  UNL1        0.0211
      6 C         142.0881  143.3293  160.9924 C.ar    1  UNL1        0.1058
      7 N         143.1390  142.8044  161.9251 N.am    1  UNL1       -0.2643
      8 C         142.7410  142.1937  163.2361 C.2     1  UNL1        0.3083
      9 O         141.2920  142.1078  163.6142 O.2     1  UNL1       -0.2521
     10 N         143.7920  141.6688  164.1688 N.am    1  UNL1       -0.2681
     11 H         144.0900  142.8607  161.6769 H       1  UNL1        0.1566
     12 H         144.7430  141.7252  163.9205 H       1  UNL1        0.1564
     13 C         143.3939  141.0581  165.4797 C.ar    1  UNL1        0.0518
     14 C         143.0646  141.9390  166.6483 C.ar    1  UNL1        0.0178
     15 C         142.6666  141.3283  167.9592 C.ar    1  UNL1        0.0385
     16 C         142.5979  139.8367  168.1016 C.ar    1  UNL1        0.1469
     17 C         142.9272  138.9557  166.9331 C.ar    1  UNL1        0.0385
     18 C         143.3253  139.5664  165.6221 C.ar    1  UNL1        0.0178
     19 O         142.1999  139.2260  169.4126 O.3     1  UNL1       -0.4045
     20 C         141.3287  139.9923  170.3633 C.3     1  UNL1        0.5753
     21 F         140.4575  140.7586  171.3139 F       1  UNL1       -0.1328
     22 F         142.5299  140.3206  171.1995 F       1  UNL1       -0.1328
     23 F         140.1275  139.6640  169.5271 F       1  UNL1       -0.1328
     24 O         141.9279  140.9964  159.8601 O.3     1  UNL1       -0.4354
     25 C         140.4849  138.9200  159.2631 C.ar    1  UNL1        0.0122
     26 C         139.8748  138.0142  158.2348 C.ar    1  UNL1       -0.0013
     27 C         140.0974  138.2792  156.7753 C.ar    1  UNL1       -0.0001
     28 C         140.9301  139.4498  156.3440 C.ar    1  UNL1        0.0031
     29 C         141.5403  140.3556  157.3723 C.ar    1  UNL1        0.0372
     30 C         141.3177  140.0906  158.8318 C.ar    1  UNL1        0.1432
     31 N         139.8171  138.1251  163.6417 N.3     1  UNL1       -0.2727
     32 C         141.1184  137.7441  163.0002 C.3     1  UNL1        0.0724
     33 C         141.3410  138.0091  161.5407 C.3     1  UNL1        0.0218
     34 C         140.2623  138.6550  160.7226 C.3     1  UNL1        0.0281
     35 C         138.9611  139.0360  161.3641 C.3     1  UNL1        0.0218
     36 C         138.7385  138.7711  162.8237 C.3     1  UNL1        0.0724
     37 C         139.5945  137.8602  165.1012 C.3     1  UNL1        0.0720
     38 C         139.5684  140.2890  166.0232 C.3     1  UNL1        0.0014
     39 C         138.9718  138.9139  165.9683 C.3     1  UNL1        0.0160
     40 C         137.7524  138.5924  166.7807 C.3     1  UNL1        0.0014
@<TRIPOS>BOND
     1    38    39    1
     2    39    40    1
     3    39    37    1
     4    37    31    1
     5    31    32    1
     6    32    33    1
     7    33    34    1
     8    34    25    1
     9    25    26   ar
    10    26    27   ar
    11    27    28   ar
    12    28    29   ar
    13    29    30   ar
    14    30    24    1
    15    24     1    1
    16     1     2   ar
    17     2     3   ar
    18     3     4   ar
    19     4     5   ar
    20     5     6   ar
    21     6     7    1
    22     7     8   am
    23     8     9    2
    24     8    10   am
    25    10    13    1
    26    13    14   ar
    27    14    15   ar
    28    15    16   ar
    29    16    19    1
    30    19    20    1
    31    20    21    1
    32    20    22    1
    33    20    23    1
    34    16    17   ar
    35    17    18   ar
    36    34    35    1
    37    35    36    1
    38    36    31    1
    39    30    25   ar
    40     6     1   ar
    41    18    13   ar
    42     7    11    1
    43    10    12    1
@<TRIPOS>MOLECULE
*****
 40 43 0 0 0
SMALL
GASTEIGER

@<TRIPOS>ATOM
      1 C         139.3999  139.8749  157.4087 C.ar    1  UNL1        0.2434
      2 N         140.0961  140.4641  156.2179 N.ar    1  UNL1       -0.2088
      3 C         139.6525  141.7876  155.6686 C.ar    1  UNL1        0.1022
      4 C         138.5127  142.5219  156.3102 C.ar    1  UNL1        0.0222
      5 C         137.8165  141.9327  157.5011 C.ar    1  UNL1        0.0211
      6 C         138.2601  140.6093  158.0503 C.ar    1  UNL1        0.1058
      7 N         137.5638  140.0201  159.2412 N.am    1  UNL1       -0.2643
      8 C         138.2191  140.0621  160.5898 C.2     1  UNL1        0.3083
      9 O         139.5706  140.6933  160.7475 O.2     1  UNL1       -0.2521
     10 N         137.5229  139.4730  161.7806 N.am    1  UNL1       -0.2681
     11 H         136.6768  139.6058  159.1376 H       1  UNL1        0.1566
     12 H         136.6358  139.0587  161.6771 H       1  UNL1        0.1564
     13 C         138.1782  139.5150  163.1292 C.ar    1  UNL1        0.0518
     14 C         138.1199  140.7674  163.9528 C.ar    1  UNL1        0.0178
     15 C         138.7752  140.8095  165.3014 C.ar    1  UNL1        0.0385
     16 C         139.4888  139.5991  165.8265 C.ar    1  UNL1        0.1469
     17 C         139.5471  138.3467  165.0031 C.ar    1  UNL1        0.0385
     18 C         138.8918  138.3046  163.6544 C.ar    1  UNL1        0.0178
     19 O         140.1441  139.6411  167.1751 O.3     1  UNL1       -0.4045
     20 C         139.3427  140.0141  168.3871 C.3     1  UNL1        0.5753
     21 F         138.5414  140.3870  169.5990 F       1  UNL1       -0.1328
     22 F         140.4603  140.8989  168.8539 F       1  UNL1       -0.1328
     23 F         138.2251  139.1292  167.9204 F       1  UNL1       -0.1328
     24 O         139.8435  138.5515  157.9580 O.3     1  UNL1       -0.4354
     25 C         142.1615  137.4708  157.5010 C.ar    1  UNL1        0.0122
     26 C         143.0364  136.5724  156.6780 C.ar    1  UNL1       -0.0013
     27 C         142.4681  135.8562  155.4888 C.ar    1  UNL1       -0.0001
     28 C         141.0249  136.0385  155.1227 C.ar    1  UNL1        0.0031
     29 C         140.1501  136.9369  155.9457 C.ar    1  UNL1        0.0372
     30 C         140.7184  137.6531  157.1349 C.ar    1  UNL1        0.1432
     31 N         143.8665  139.6194  161.0685 N.3     1  UNL1       -0.2727
     32 C         143.6013  140.3699  159.7972 C.3     1  UNL1        0.0724
     33 C         143.0330  139.6537  158.6080 C.3     1  UNL1        0.0218
     34 C         142.7298  138.1870  158.6902 C.3     1  UNL1        0.0281
     35 C         142.9950  137.4365  159.9615 C.3     1  UNL1        0.0218
     36 C         143.5633  138.1527  161.1507 C.3     1  UNL1        0.0724
     37 C         144.4348  140.3356  162.2577 C.3     1  UNL1        0.0720
     38 C         142.0488  140.7436  163.2014 C.3     1  UNL1        0.0014
     39 C         143.5370  140.7400  163.3892 C.3     1  UNL1        0.0160
     40 C         144.1274  141.1408  164.7086 C.3     1  UNL1        0.0014
@<TRIPOS>BOND
     1    38    39    1
     2    39    40    1
     3    39    37    1
     4    37    31    1
     5    31    32    1
     6    32    33    1
     7    33    34    1
     8    34    25    1
     9    25    26   ar
    10    26    27   ar
    11    27    28   ar
    12    28    29   ar
    13    29    30   ar
    14    30    24    1
    15    24     1    1
    16     1     2   ar
    17     2     3   ar
    18     3     4   ar
    19     4     5   ar
    20     5     6   ar
    21     6     7    1
    22     7     8   am
    23     8     9    2
    24     8    10   am
    25    10    13    1
    26    13    14   ar
    27    14    15   ar
    28    15    16   ar
    29    16    19    1
    30    19    20    1
    31    20    21    1
    32    20    22    1
    33    20    23    1
    34    16    17   ar
    35    17    18   ar
    36    34    35    1
    37    35    36    1
    38    36    31    1
    39    30    25   ar
    40     6     1   ar
    41    18    13   ar
    42     7    11    1
    43    10    12    1
@<TRIPOS>MOLECULE
*****
 40 43 0 0 0
SMALL
GASTEIGER

@<TRIPOS>ATOM
      1 C         141.7215  142.3240  159.0460 C.ar    1  UNL1        0.2434
      2 N         141.9815  141.4704  157.8402 N.ar    1  UNL1       -0.2088
      3 C         143.3882  141.1050  157.4692 C.ar    1  UNL1        0.1022
      4 C         144.5349  141.5932  158.3039 C.ar    1  UNL1        0.0222
      5 C         144.2749  142.4468  159.5096 C.ar    1  UNL1        0.0211
      6 C         142.8682  142.8122  159.8807 C.ar    1  UNL1        0.1058
      7 N         142.6082  143.6657  161.0864 N.am    1  UNL1       -0.2643
      8 C         142.3694  143.0251  162.4215 C.2     1  UNL1        0.3083
      9 O         142.3905  141.5308  162.5508 O.2     1  UNL1       -0.2521
     10 N         142.1094  143.8786  163.6272 N.am    1  UNL1       -0.2681
     11 H         142.5943  144.6465  161.0015 H       1  UNL1        0.1566
     12 H         142.0955  144.8594  163.5423 H       1  UNL1        0.1564
     13 C         141.8705  143.2380  164.9623 C.ar    1  UNL1        0.0518
     14 C         140.4791  143.1562  165.5168 C.ar    1  UNL1        0.0178
     15 C         140.2402  142.5156  166.8519 C.ar    1  UNL1        0.0385
     16 C         141.3927  141.9566  167.6325 C.ar    1  UNL1        0.1469
     17 C         142.7841  142.0384  167.0781 C.ar    1  UNL1        0.0385
     18 C         143.0230  142.6791  165.7429 C.ar    1  UNL1        0.0178
     19 O         141.1539  141.3160  168.9676 O.3     1  UNL1       -0.4045
     20 C         139.7836  140.8243  169.3291 C.3     1  UNL1        0.5753
     21 F         138.4134  140.3325  169.6907 F       1  UNL1       -0.1328
     22 F         139.5295  142.0917  170.0900 F       1  UNL1       -0.1328
     23 F         140.0377  139.5568  168.5682 F       1  UNL1       -0.1328
     24 O         140.3148  142.6893  159.4170 O.3     1  UNL1       -0.4354
     25 C         138.2730  141.2365  158.7311 C.ar    1  UNL1        0.0122
     26 C         137.1473  140.9425  157.7844 C.ar    1  UNL1       -0.0013
     27 C         136.9374  141.8075  156.5770 C.ar    1  UNL1       -0.0001
     28 C         137.8533  142.9664  156.3163 C.ar    1  UNL1        0.0031
     29 C         138.9790  143.2603  157.2629 C.ar    1  UNL1        0.0372
     30 C         139.1889  142.3954  158.4703 C.ar    1  UNL1        0.1432
     31 N         138.9027  138.6415  162.3532 N.3     1  UNL1       -0.2727
     32 C         139.5046  138.2500  161.0363 C.3     1  UNL1        0.0724
     33 C         139.2947  139.1150  159.8289 C.3     1  UNL1        0.0218
     34 C         138.4829  140.3715  159.9384 C.3     1  UNL1        0.0281
     35 C         137.8810  140.7630  161.2554 C.3     1  UNL1        0.0218
     36 C         138.0909  139.8981  162.4627 C.3     1  UNL1        0.0724
     37 C         139.1126  137.7766  163.5606 C.3     1  UNL1        0.0720
     38 C         140.6963  139.0210  165.2016 C.3     1  UNL1        0.0014
     39 C         139.3624  138.4052  164.8993 C.3     1  UNL1        0.0160
     40 C         138.2782  138.4182  165.9359 C.3     1  UNL1        0.0014
@<TRIPOS>BOND
     1    38    39    1
     2    39    40    1
     3    39    37    1
     4    37    31    1
     5    31    32    1
     6    32    33    1
     7    33    34    1
     8    34    25    1
     9    25    26   ar
    10    26    27   ar
    11    27    28   ar
    12    28    29   ar
    13    29    30   ar
    14    30    24    1
    15    24     1    1
    16     1     2   ar
    17     2     3   ar
    18     3     4   ar
    19     4     5   ar
    20     5     6   ar
    21     6     7    1
    22     7     8   am
    23     8     9    2
    24     8    10   am
    25    10    13    1
    26    13    14   ar
    27    14    15   ar
    28    15    16   ar
    29    16    19    1
    30    19    20    1
    31    20    21    1
    32    20    22    1
    33    20    23    1
    34    16    17   ar
    35    17    18   ar
    36    34    35    1
    37    35    36    1
    38    36    31    1
    39    30    25   ar
    40     6     1   ar
    41    18    13   ar
    42     7    11    1
    43    10    12    1
@<TRIPOS>MOLECULE
*****
 40 43 0 0 0
SMALL
GASTEIGER

@<TRIPOS>ATOM
      1 C         141.0032  140.4858  158.0765 C.ar    1  UNL1        0.2434
      2 N         142.1844  140.8870  157.2437 N.ar    1  UNL1       -0.2088
      3 C         143.1521  139.8461  156.7638 C.ar    1  UNL1        0.1022
      4 C         142.9384  138.4040  157.1169 C.ar    1  UNL1        0.0222
      5 C         141.7572  138.0028  157.9497 C.ar    1  UNL1        0.0211
      6 C         140.7896  139.0436  158.4296 C.ar    1  UNL1        0.1058
      7 N         139.6083  138.6424  159.2624 N.am    1  UNL1       -0.2643
      8 C         139.6455  138.8198  160.7514 C.2     1  UNL1        0.3083
      9 O         140.8640  139.3984  161.4075 O.2     1  UNL1       -0.2521
     10 N         138.4643  138.4186  161.5843 N.am    1  UNL1       -0.2681
     11 H         138.8086  138.2626  158.8318 H       1  UNL1        0.1566
     12 H         137.6646  138.0388  161.1536 H       1  UNL1        0.1564
     13 C         138.5015  138.5960  163.0733 C.ar    1  UNL1        0.0518
     14 C         138.8886  137.4466  163.9561 C.ar    1  UNL1        0.0178
     15 C         138.9258  137.6240  165.4451 C.ar    1  UNL1        0.0385
     16 C         138.5759  138.9507  166.0513 C.ar    1  UNL1        0.1469
     17 C         138.1889  140.1000  165.1686 C.ar    1  UNL1        0.0385
     18 C         138.1517  139.9226  163.6795 C.ar    1  UNL1        0.0178
     19 O         138.6132  139.1281  167.5403 O.3     1  UNL1       -0.4045
     20 C         139.6654  139.9947  168.1663 C.3     1  UNL1        0.5753
     21 F         140.7176  140.8613  168.7923 F       1  UNL1       -0.1328
     22 F         140.6213  139.6254  167.0710 F       1  UNL1       -0.1328
     23 F         138.7095  140.3640  169.2616 F       1  UNL1       -0.1328
     24 O         140.0356  141.5267  158.5564 O.3     1  UNL1       -0.4354
     25 C         141.0528  143.7882  159.3315 C.ar    1  UNL1        0.0122
     26 C         141.3298  145.2412  159.0826 C.ar    1  UNL1       -0.0013
     27 C         140.8666  145.8858  157.8098 C.ar    1  UNL1       -0.0001
     28 C         140.1264  145.0773  156.7859 C.ar    1  UNL1        0.0031
     29 C         139.8494  143.6243  157.0347 C.ar    1  UNL1        0.0372
     30 C         140.3126  142.9798  158.3075 C.ar    1  UNL1        0.1432
     31 N         142.4424  141.8546  163.1498 N.3     1  UNL1       -0.2727
     32 C         143.3471  141.8885  161.9539 C.3     1  UNL1        0.0724
     33 C         142.8839  142.5331  160.6811 C.3     1  UNL1        0.0218
     34 C         141.5160  143.1437  160.6042 C.3     1  UNL1        0.0281
     35 C         140.6113  143.1097  161.8002 C.3     1  UNL1        0.0218
     36 C         141.0745  142.4652  163.0730 C.3     1  UNL1        0.0724
     37 C         142.9056  141.2100  164.4226 C.3     1  UNL1        0.0720
     38 C         142.4509  138.6524  164.4678 C.3     1  UNL1        0.0014
     39 C         143.4156  139.7995  164.4066 C.3     1  UNL1        0.0160
     40 C         144.8903  139.5359  164.3294 C.3     1  UNL1        0.0014
@<TRIPOS>BOND
     1    38    39    1
     2    39    40    1
     3    39    37    1
     4    37    31    1
     5    31    32    1
     6    32    33    1
     7    33    34    1
     8    34    25    1
     9    25    26   ar
    10    26    27   ar
    11    27    28   ar
    12    28    29   ar
    13    29    30   ar
    14    30    24    1
    15    24     1    1
    16     1     2   ar
    17     2     3   ar
    18     3     4   ar
    19     4     5   ar
    20     5     6   ar
    21     6     7    1
    22     7     8   am
    23     8     9    2
    24     8    10   am
    25    10    13    1
    26    13    14   ar
    27    14    15   ar
    28    15    16   ar
    29    16    19    1
    30    19    20    1
    31    20    21    1
    32    20    22    1
    33    20    23    1
    34    16    17   ar
    35    17    18   ar
    36    34    35    1
    37    35    36    1
    38    36    31    1
    39    30    25   ar
    40     6     1   ar
    41    18    13   ar
    42     7    11    1
    43    10    12    1
@<TRIPOS>MOLECULE
*****
 40 43 0 0 0
SMALL
GASTEIGER

@<TRIPOS>ATOM
      1 C         140.2723  141.4778  159.0704 C.ar    1  UNL1        0.2434
      2 N         141.0564  141.9361  157.8766 N.ar    1  UNL1       -0.2088
      3 C         141.3020  143.3996  157.6574 C.ar    1  UNL1        0.1022
      4 C         140.7636  144.4047  158.6320 C.ar    1  UNL1        0.0222
      5 C         139.9795  143.9464  159.8258 C.ar    1  UNL1        0.0211
      6 C         139.7338  142.4830  160.0450 C.ar    1  UNL1        0.1058
      7 N         138.9497  142.0247  161.2388 N.am    1  UNL1       -0.2643
      8 C         139.5837  142.0264  162.5982 C.2     1  UNL1        0.3083
      9 O         141.0017  142.4863  162.7638 O.2     1  UNL1       -0.2521
     10 N         138.7995  141.5681  163.7920 N.am    1  UNL1       -0.2681
     11 H         138.0190  141.7228  161.1300 H       1  UNL1        0.1566
     12 H         137.8688  141.2662  163.6832 H       1  UNL1        0.1564
     13 C         139.4335  141.5697  165.1514 C.ar    1  UNL1        0.0518
     14 C         139.6548  140.2758  165.8773 C.ar    1  UNL1        0.0178
     15 C         140.2887  140.2775  167.2367 C.ar    1  UNL1        0.0385
     16 C         140.7014  141.5730  167.8703 C.ar    1  UNL1        0.1469
     17 C         140.4802  142.8668  167.1444 C.ar    1  UNL1        0.0385
     18 C         139.8462  142.8652  165.7849 C.ar    1  UNL1        0.0178
     19 O         141.3354  141.5746  169.2297 O.3     1  UNL1       -0.4045
     20 C         142.7642  142.0022  169.3904 C.3     1  UNL1        0.5753
     21 F         144.1929  142.4298  169.5512 F       1  UNL1       -0.1328
     22 F         142.3075  143.3286  169.9215 F       1  UNL1       -0.1328
     23 F         143.2209  140.6758  168.8594 F       1  UNL1       -0.1328
     24 O         140.0266  140.0145  159.2896 O.3     1  UNL1       -0.4354
     25 C         141.8939  138.3056  158.7040 C.ar    1  UNL1        0.0122
     26 C         142.4832  137.2969  157.7631 C.ar    1  UNL1       -0.0013
     27 C         141.7944  136.9885  156.4667 C.ar    1  UNL1       -0.0001
     28 C         140.5164  137.6888  156.1113 C.ar    1  UNL1        0.0031
     29 C         139.9272  138.6974  157.0523 C.ar    1  UNL1        0.0372
     30 C         140.6159  139.0058  158.3486 C.ar    1  UNL1        0.1432
     31 N         143.9602  139.2307  162.5930 N.3     1  UNL1       -0.2727
     32 C         142.9859  138.0930  162.5135 C.3     1  UNL1        0.0724
     33 C         142.2971  137.7846  161.2172 C.3     1  UNL1        0.0218
     34 C         142.5827  138.6139  160.0004 C.3     1  UNL1        0.0281
     35 C         143.5570  139.7516  160.0799 C.3     1  UNL1        0.0218
     36 C         144.2457  140.0600  161.3762 C.3     1  UNL1        0.0724
     37 C         144.6489  139.5391  163.8894 C.3     1  UNL1        0.0720
     38 C         143.4752  138.7475  166.0678 C.3     1  UNL1        0.0014
     39 C         143.8394  139.8465  165.1142 C.3     1  UNL1        0.0160
     40 C         143.3941  141.2530  165.3854 C.3     1  UNL1        0.0014
@<TRIPOS>BOND
     1    38    39    1
     2    39    40    1
     3    39    37    1
     4    37    31    1
     5    31    32    1
     6    32    33    1
     7    33    34    1
     8    34    25    1
     9    25    26   ar
    10    26    27   ar
    11    27    28   ar
    12    28    29   ar
    13    29    30   ar
    14    30    24    1
    15    24     1    1
    16     1     2   ar
    17     2     3   ar
    18     3     4   ar
    19     4     5   ar
    20     5     6   ar
    21     6     7    1
    22     7     8   am
    23     8     9    2
    24     8    10   am
    25    10    13    1
    26    13    14   ar
    27    14    15   ar
    28    15    16   ar
    29    16    19    1
    30    19    20    1
    31    20    21    1
    32    20    22    1
    33    20    23    1
    34    16    17   ar
    35    17    18   ar
    36    34    35    1
    37    35    36    1
    38    36    31    1
    39    30    25   ar
    40     6     1   ar
    41    18    13   ar
    42     7    11    1
    43    10    12    1
@<TRIPOS>MOLECULE
*****
 40 43 0 0 0
SMALL
GASTEIGER

@<TRIPOS>ATOM
      1 C         142.7632  140.7205  165.7831 C.ar    1  UNL1        0.2434
      2 N         142.9437  139.3460  166.3560 N.ar    1  UNL1       -0.2088
      3 C         144.0778  138.4821  165.8897 C.ar    1  UNL1        0.1022
      4 C         145.0313  138.9926  164.8504 C.ar    1  UNL1        0.0222
      5 C         144.8509  140.3671  164.2775 C.ar    1  UNL1        0.0211
      6 C         143.7168  141.2310  164.7438 C.ar    1  UNL1        0.1058
      7 N         143.5363  142.6055  164.1709 N.am    1  UNL1       -0.2643
      8 C         142.8465  142.7832  162.8509 C.2     1  UNL1        0.3083
      9 O         142.3371  141.5864  162.1038 O.2     1  UNL1       -0.2521
     10 N         142.6660  144.1577  162.2780 N.am    1  UNL1       -0.2681
     11 H         143.8707  143.3910  164.6613 H       1  UNL1        0.1566
     12 H         143.0003  144.9432  162.7684 H       1  UNL1        0.1564
     13 C         141.9761  144.3354  160.9580 C.ar    1  UNL1        0.0518
     14 C         142.5287  143.6776  159.7283 C.ar    1  UNL1        0.0178
     15 C         141.8389  143.8553  158.4083 C.ar    1  UNL1        0.0385
     16 C         140.5963  144.6908  158.3179 C.ar    1  UNL1        0.1469
     17 C         140.0437  145.3485  159.5475 C.ar    1  UNL1        0.0385
     18 C         140.7336  145.1708  160.8676 C.ar    1  UNL1        0.0178
     19 O         139.9065  144.8685  156.9979 O.3     1  UNL1       -0.4045
     20 C         139.9496  146.1966  156.3019 C.3     1  UNL1        0.5753
     21 F         139.9927  147.5246  155.6059 F       1  UNL1       -0.1328
     22 F         138.5522  145.9798  155.8017 F       1  UNL1       -0.1328
     23 F         141.3470  146.4133  156.8021 F       1  UNL1       -0.1328
     24 O         141.6291  141.5845  166.2494 O.3     1  UNL1       -0.4354
     25 C         139.5936  140.3543  167.2952 C.ar    1  UNL1        0.0122
     26 C         138.7952  139.9574  168.5014 C.ar    1  UNL1       -0.0013
     27 C         139.2337  140.3936  169.8679 C.ar    1  UNL1       -0.0001
     28 C         140.4707  141.2267  170.0283 C.ar    1  UNL1        0.0031
     29 C         141.2691  141.6236  168.8222 C.ar    1  UNL1        0.0372
     30 C         140.8306  141.1875  167.4556 C.ar    1  UNL1        0.1432
     31 N         138.2781  139.0459  163.1956 N.3     1  UNL1       -0.2727
     32 C         139.0152  138.0910  164.0871 C.3     1  UNL1        0.0724
     33 C         139.4537  138.5271  165.4536 C.3     1  UNL1        0.0218
     34 C         139.1551  139.9182  165.9287 C.3     1  UNL1        0.0281
     35 C         138.4180  140.8731  165.0372 C.3     1  UNL1        0.0218
     36 C         137.9795  140.4369  163.6706 C.3     1  UNL1        0.0724
     37 C         137.8395  138.6097  161.8290 C.3     1  UNL1        0.0720
     38 C         139.9748  138.5708  160.3495 C.3     1  UNL1        0.0014
     39 C         138.5883  139.0772  160.6163 C.3     1  UNL1        0.0160
     40 C         137.9506  140.0511  159.6703 C.3     1  UNL1        0.0014
@<TRIPOS>BOND
     1    38    39    1
     2    39    40    1
     3    39    37    1
     4    37    31    1
     5    31    32    1
     6    32    33    1
     7    33    34    1
     8    34    25    1
     9    25    26   ar
    10    26    27   ar
    11    27    28   ar
    12    28    29   ar
    13    29    30   ar
    14    30    24    1
    15    24     1    1
    16     1     2   ar
    17     2     3   ar
    18     3     4   ar
    19     4     5   ar
    20     5     6   ar
    21     6     7    1
    22     7     8   am
    23     8     9    2
    24     8    10   am
    25    10    13    1
    26    13    14   ar
    27    14    15   ar
    28    15    16   ar
    29    16    19    1
    30    19    20    1
    31    20    21    1
    32    20    22    1
    33    20    23    1
    34    16    17   ar
    35    17    18   ar
    36    34    35    1
    37    35    36    1
    38    36    31    1
    39    30    25   ar
    40     6     1   ar
    41    18    13   ar
    42     7    11    1
    43    10    12    1
@<TRIPOS>MOLECULE
*****
 40 43 0 0 0
SMALL
GASTEIGER

@<TRIPOS>ATOM
      1 C         141.7215  140.9326  158.9106 C.ar    1  UNL1        0.2434
      2 N         140.6982  140.7196  157.8347 N.ar    1  UNL1       -0.2088
      3 C         140.1314  139.3508  157.5992 C.ar    1  UNL1        0.1022
      4 C         140.5880  138.1952  158.4394 C.ar    1  UNL1        0.0222
      5 C         141.6114  138.4082  159.5152 C.ar    1  UNL1        0.0211
      6 C         142.1781  139.7769  159.7508 C.ar    1  UNL1        0.1058
      7 N         143.2015  139.9899  160.8266 N.am    1  UNL1       -0.2643
      8 C         142.7637  140.3017  162.2270 C.2     1  UNL1        0.3083
      9 O         141.3026  140.4005  162.5515 O.2     1  UNL1       -0.2521
     10 N         143.7871  140.5147  163.3028 N.am    1  UNL1       -0.2681
     11 H         144.1605  139.9250  160.6136 H       1  UNL1        0.1566
     12 H         144.7461  140.4499  163.0898 H       1  UNL1        0.1564
     13 C         143.3493  140.8265  164.7032 C.ar    1  UNL1        0.0518
     14 C         143.3478  142.2454  165.1901 C.ar    1  UNL1        0.0178
     15 C         142.9100  142.5572  166.5905 C.ar    1  UNL1        0.0385
     16 C         142.4738  141.4503  167.5040 C.ar    1  UNL1        0.1469
     17 C         142.4753  140.0315  167.0171 C.ar    1  UNL1        0.0385
     18 C         142.9131  139.7196  165.6167 C.ar    1  UNL1        0.0178
     19 O         142.0361  141.7621  168.9044 O.3     1  UNL1       -0.4045
     20 C         141.1358  142.9332  169.1656 C.3     1  UNL1        0.5753
     21 F         140.2356  144.1042  169.4267 F       1  UNL1       -0.1328
     22 F         142.1898  143.5490  170.0373 F       1  UNL1       -0.1328
     23 F         140.0819  142.3174  168.2938 F       1  UNL1       -0.1328
     24 O         142.2883  142.3012  159.1462 O.3     1  UNL1       -0.4354
     25 C         140.9849  144.4395  158.4541 C.ar    1  UNL1        0.0122
     26 C         140.7234  145.5394  157.4683 C.ar    1  UNL1       -0.0013
     27 C         141.5039  145.6010  156.1888 C.ar    1  UNL1       -0.0001
     28 C         142.5458  144.5627  155.8951 C.ar    1  UNL1        0.0031
     29 C         142.8073  143.4628  156.8809 C.ar    1  UNL1        0.0372
     30 C         142.0268  143.4012  158.1604 C.ar    1  UNL1        0.1432
     31 N         138.6436  144.2547  162.2926 N.3     1  UNL1       -0.2727
     32 C         138.5104  143.1568  161.2792 C.3     1  UNL1        0.0724
     33 C         139.2908  143.2184  159.9997 C.3     1  UNL1        0.0218
     34 C         140.2045  144.3779  159.7336 C.3     1  UNL1        0.0281
     35 C         140.3376  145.4758  160.7469 C.3     1  UNL1        0.0218
     36 C         139.5572  145.4141  162.0264 C.3     1  UNL1        0.0724
     37 C         137.8631  144.1931  163.5721 C.3     1  UNL1        0.0720
     38 C         139.3773  142.7549  165.1177 C.3     1  UNL1        0.0014
     39 C         138.5767  144.0004  164.8773 C.3     1  UNL1        0.0160
     40 C         138.4896  145.0533  165.9422 C.3     1  UNL1        0.0014
@<TRIPOS>BOND
     1    38    39    1
     2    39    40    1
     3    39    37    1
     4    37    31    1
     5    31    32    1
     6    32    33    1
     7    33    34    1
     8    34    25    1
     9    25    26   ar
    10    26    27   ar
    11    27    28   ar
    12    28    29   ar
    13    29    30   ar
    14    30    24    1
    15    24     1    1
    16     1     2   ar
    17     2     3   ar
    18     3     4   ar
    19     4     5   ar
    20     5     6   ar
    21     6     7    1
    22     7     8   am
    23     8     9    2
    24     8    10   am
    25    10    13    1
    26    13    14   ar
    27    14    15   ar
    28    15    16   ar
    29    16    19    1
    30    19    20    1
    31    20    21    1
    32    20    22    1
    33    20    23    1
    34    16    17   ar
    35    17    18   ar
    36    34    35    1
    37    35    36    1
    38    36    31    1
    39    30    25   ar
    40     6     1   ar
    41    18    13   ar
    42     7    11    1
    43    10    12    1
