@<TRIPOS>MOLECULE
*****
 34 37 0 0 0
SMALL
GASTEIGER

@<TRIPOS>ATOM
      1 C         140.1312  138.4307  158.1130 C.ar    1  UNL1        0.1318
      2 N         139.0539  138.5026  159.1542 N.ar    1  UNL1       -0.2290
      3 C         139.4099  138.4167  160.6088 C.ar    1  UNL1        0.1048
      4 C         140.8431  138.2590  161.0222 C.ar    1  UNL1        0.0729
      5 C         141.9204  138.1871  159.9809 C.ar    1  UNL1        0.0090
      6 C         141.5644  138.2730  158.5263 C.ar    1  UNL1        0.0348
      7 C         138.7074  138.7741  152.2945 C.3     1  UNL1        0.0897
      8 N         139.0633  138.6882  153.7491 N.3     1  UNL1       -0.2686
      9 C         139.4554  139.9263  154.4996 C.3     1  UNL1        0.0939
     10 C         139.8113  139.8405  155.9542 C.3     1  UNL1        0.1095
     11 N         139.7753  138.5165  156.6583 N.pl3   1  UNL1       -0.2904
     12 C         139.3832  137.2784  155.9078 C.3     1  UNL1        0.1095
     13 C         139.0273  137.3643  154.4532 C.3     1  UNL1        0.0939
     14 C         142.6418  138.2011  157.4850 C.ar    1  UNL1        0.0411
     15 C         142.9919  136.8843  156.8577 C.ar    1  UNL1        0.1023
     16 N         144.0692  136.8124  155.8164 N.ar    1  UNL1       -0.2224
     17 C         144.7965  138.0573  155.4025 C.ar    1  UNL1        0.1989
     18 N         144.4464  139.3741  156.0299 N.ar    1  UNL1       -0.2224
     19 C         143.3691  139.4460  157.0711 C.ar    1  UNL1        0.1023
     20 C         141.1991  138.1732  162.4768 C.2     1  UNL1        0.2510
     21 O         141.0784  136.8660  163.2026 O.2     1  UNL1       -0.2698
     22 N         141.6758  139.3944  163.2056 N.am    1  UNL1       -0.2803
     23 H         141.7550  140.2524  162.7293 H       1  UNL1        0.1552
     24 C         142.0317  139.3086  164.6603 C.ar    1  UNL1        0.0507
     25 C         141.1572  139.9660  165.6865 C.ar    1  UNL1        0.0178
     26 C         141.5131  139.8802  167.1411 C.ar    1  UNL1        0.0385
     27 C         142.7436  139.1369  167.5695 C.ar    1  UNL1        0.1469
     28 C         143.6181  138.4795  166.5433 C.ar    1  UNL1        0.0385
     29 C         143.2622  138.5654  165.0887 C.ar    1  UNL1        0.0178
     30 O         143.0996  139.0510  169.0241 O.3     1  UNL1       -0.4045
     31 C         142.4844  140.0054  170.0044 C.3     1  UNL1        0.5753
     32 F         141.8693  140.9597  170.9846 F       1  UNL1       -0.1328
     33 F         143.5636  141.0044  169.7090 F       1  UNL1       -0.1328
     34 F         141.4052  139.0064  170.2997 F       1  UNL1       -0.1328
@<TRIPOS>BOND
     1     7     8    1
     2     8     9    1
     3     9    10    1
     4    10    11    1
     5    11     1    1
     6     1     2   ar
     7     2     3   ar
     8     3     4   ar
     9     4    20    1
    10    20    21    2
    11    20    22   am
    12    22    24    1
    13    24    25   ar
    14    25    26   ar
    15    26    27   ar
    16    27    30    1
    17    30    31    1
    18    31    32    1
    19    31    33    1
    20    31    34    1
    21    27    28   ar
    22    28    29   ar
    23     4     5   ar
    24     5     6   ar
    25     6    14    1
    26    14    15   ar
    27    15    16   ar
    28    16    17   ar
    29    17    18   ar
    30    18    19   ar
    31    11    12    1
    32    12    13    1
    33    13     8    1
    34     6     1   ar
    35    19    14   ar
    36    29    24   ar
    37    22    23    1
@<TRIPOS>MOLECULE
*****
 34 37 0 0 0
SMALL
GASTEIGER

@<TRIPOS>ATOM
      1 C         142.0973  140.7425  163.3018 C.ar    1  UNL1        0.1318
      2 N         143.3623  139.9879  163.0188 N.ar    1  UNL1       -0.2290
      3 C         144.0135  140.0940  161.6717 C.ar    1  UNL1        0.1048
      4 C         143.3997  140.9548  160.6077 C.ar    1  UNL1        0.0729
      5 C         142.1347  141.7094  160.8907 C.ar    1  UNL1        0.0090
      6 C         141.4835  141.6033  162.2378 C.ar    1  UNL1        0.0348
      7 C         139.4923  140.3181  168.6902 C.3     1  UNL1        0.0897
      8 N         140.1435  140.4242  167.3431 N.3     1  UNL1       -0.2686
      9 C         141.2048  141.4565  167.1023 C.3     1  UNL1        0.0939
     10 C         141.8560  141.5626  165.7552 C.3     1  UNL1        0.1095
     11 N         141.4460  140.6364  164.6489 N.pl3   1  UNL1       -0.2904
     12 C         140.3848  139.6041  164.8897 C.3     1  UNL1        0.1095
     13 C         139.7335  139.4980  166.2368 C.3     1  UNL1        0.0939
     14 C         140.2184  142.3580  162.5208 C.ar    1  UNL1        0.0411
     15 C         140.2812  143.7180  163.1503 C.ar    1  UNL1        0.1023
     16 N         139.0161  144.4727  163.4333 N.ar    1  UNL1       -0.2224
     17 C         137.6882  143.8674  163.0867 C.ar    1  UNL1        0.1989
     18 N         137.6254  142.5073  162.4571 N.ar    1  UNL1       -0.2224
     19 C         138.8904  141.7526  162.1742 C.ar    1  UNL1        0.1023
     20 C         144.0510  141.0609  159.2606 C.2     1  UNL1        0.2510
     21 O         144.2176  139.8370  158.4096 O.2     1  UNL1       -0.2698
     22 N         144.5356  142.3909  158.7645 N.am    1  UNL1       -0.2803
     23 H         144.4262  143.1942  159.3231 H       1  UNL1        0.1552
     24 C         145.1868  142.4970  157.4174 C.ar    1  UNL1        0.0507
     25 C         146.6771  142.6331  157.3135 C.ar    1  UNL1        0.0178
     26 C         147.3283  142.7392  155.9664 C.ar    1  UNL1        0.0385
     27 C         146.4893  142.7093  154.7233 C.ar    1  UNL1        0.1469
     28 C         144.9992  142.5732  154.8273 C.ar    1  UNL1        0.0385
     29 C         144.3479  142.4671  156.1744 C.ar    1  UNL1        0.0178
     30 O         147.1406  142.8154  153.3762 O.3     1  UNL1       -0.4045
     31 C         148.4525  143.5282  153.2315 C.3     1  UNL1        0.5753
     32 F         149.7644  144.2409  153.0868 F       1  UNL1       -0.1328
     33 F         147.7428  144.8479  153.2983 F       1  UNL1       -0.1328
     34 F         149.1622  142.2084  153.1646 F       1  UNL1       -0.1328
@<TRIPOS>BOND
     1     7     8    1
     2     8     9    1
     3     9    10    1
     4    10    11    1
     5    11     1    1
     6     1     2   ar
     7     2     3   ar
     8     3     4   ar
     9     4    20    1
    10    20    21    2
    11    20    22   am
    12    22    24    1
    13    24    25   ar
    14    25    26   ar
    15    26    27   ar
    16    27    30    1
    17    30    31    1
    18    31    32    1
    19    31    33    1
    20    31    34    1
    21    27    28   ar
    22    28    29   ar
    23     4     5   ar
    24     5     6   ar
    25     6    14    1
    26    14    15   ar
    27    15    16   ar
    28    16    17   ar
    29    17    18   ar
    30    18    19   ar
    31    11    12    1
    32    12    13    1
    33    13     8    1
    34     6     1   ar
    35    19    14   ar
    36    29    24   ar
    37    22    23    1
@<TRIPOS>MOLECULE
*****
 34 37 0 0 0
SMALL
GASTEIGER

@<TRIPOS>ATOM
      1 C         138.5087  141.3484  158.2482 C.ar    1  UNL1        0.1318
      2 N         137.7132  140.2567  158.9004 N.ar    1  UNL1       -0.2290
      3 C         137.9681  139.8971  160.3342 C.ar    1  UNL1        0.1048
      4 C         139.0184  140.6291  161.1158 C.ar    1  UNL1        0.0729
      5 C         139.8139  141.7208  160.4636 C.ar    1  UNL1        0.0090
      6 C         139.5590  142.0804  159.0298 C.ar    1  UNL1        0.0348
      7 C         137.4894  142.7869  152.5131 C.3     1  UNL1        0.0897
      8 N         137.7442  142.4272  153.9469 N.3     1  UNL1       -0.2686
      9 C         137.0621  143.1895  155.0440 C.3     1  UNL1        0.0939
     10 C         137.3170  142.8299  156.4777 C.3     1  UNL1        0.1095
     11 N         138.2539  141.7080  156.8145 N.pl3   1  UNL1       -0.2904
     12 C         138.9360  140.9457  155.7174 C.3     1  UNL1        0.1095
     13 C         138.6811  141.3053  154.2836 C.3     1  UNL1        0.0939
     14 C         140.3546  143.1721  158.3776 C.ar    1  UNL1        0.0411
     15 C         141.5573  142.8311  157.5487 C.ar    1  UNL1        0.1023
     16 N         142.3528  143.9228  156.8965 N.ar    1  UNL1       -0.2224
     17 C         141.9456  145.3556  157.0733 C.ar    1  UNL1        0.1989
     18 N         140.7428  145.6967  157.9022 N.ar    1  UNL1       -0.2224
     19 C         139.9473  144.6049  158.5543 C.ar    1  UNL1        0.1023
     20 C         139.2732  140.2695  162.5496 C.2     1  UNL1        0.2510
     21 O         140.1913  139.1319  162.8857 O.2     1  UNL1       -0.2698
     22 N         138.6100  141.0474  163.6472 N.am    1  UNL1       -0.2803
     23 H         138.0075  141.7941  163.4266 H       1  UNL1        0.1552
     24 C         138.8648  140.6878  165.0810 C.ar    1  UNL1        0.0507
     25 C         138.1700  139.5077  165.6932 C.ar    1  UNL1        0.0178
     26 C         138.4248  139.1481  167.1269 C.ar    1  UNL1        0.0385
     27 C         139.3745  139.9686  167.9486 C.ar    1  UNL1        0.1469
     28 C         140.0693  141.1486  167.3364 C.ar    1  UNL1        0.0385
     29 C         139.8145  141.5082  165.9026 C.ar    1  UNL1        0.0178
     30 O         139.6293  139.6089  169.3824 O.3     1  UNL1       -0.4045
     31 C         140.1122  140.6546  170.3434 C.3     1  UNL1        0.5753
     32 F         140.5950  141.7002  171.3045 F       1  UNL1       -0.1328
     33 F         138.7732  141.3279  170.2836 F       1  UNL1       -0.1328
     34 F         141.4512  139.9813  170.4033 F       1  UNL1       -0.1328
@<TRIPOS>BOND
     1     7     8    1
     2     8     9    1
     3     9    10    1
     4    10    11    1
     5    11     1    1
     6     1     2   ar
     7     2     3   ar
     8     3     4   ar
     9     4    20    1
    10    20    21    2
    11    20    22   am
    12    22    24    1
    13    24    25   ar
    14    25    26   ar
    15    26    27   ar
    16    27    30    1
    17    30    31    1
    18    31    32    1
    19    31    33    1
    20    31    34    1
    21    27    28   ar
    22    28    29   ar
    23     4     5   ar
    24     5     6   ar
    25     6    14    1
    26    14    15   ar
    27    15    16   ar
    28    16    17   ar
    29    17    18   ar
    30    18    19   ar
    31    11    12    1
    32    12    13    1
    33    13     8    1
    34     6     1   ar
    35    19    14   ar
    36    29    24   ar
    37    22    23    1
@<TRIPOS>MOLECULE
*****
 34 37 0 0 0
SMALL
GASTEIGER

@<TRIPOS>ATOM
      1 C         143.5666  140.2490  158.8145 C.ar    1  UNL1        0.1318
      2 N         144.0117  139.0509  159.5995 N.ar    1  UNL1       -0.2290
      3 C         143.5091  138.8409  160.9971 C.ar    1  UNL1        0.1048
      4 C         142.5612  139.8291  161.6096 C.ar    1  UNL1        0.0729
      5 C         142.1161  141.0271  160.8246 C.ar    1  UNL1        0.0090
      6 C         142.6187  141.2371  159.4270 C.ar    1  UNL1        0.0348
      7 C         145.5772  141.0888  153.2241 C.3     1  UNL1        0.0897
      8 N         145.0745  140.8788  154.6217 N.3     1  UNL1       -0.2686
      9 C         145.8161  141.4724  155.7826 C.3     1  UNL1        0.0939
     10 C         145.3135  141.2625  157.1801 C.3     1  UNL1        0.1095
     11 N         144.0692  140.4589  157.4169 N.pl3   1  UNL1       -0.2904
     12 C         143.3276  139.8653  156.2560 C.3     1  UNL1        0.1095
     13 C         143.8303  140.0753  154.8584 C.3     1  UNL1        0.0939
     14 C         142.1735  142.4353  158.6419 C.ar    1  UNL1        0.0411
     15 C         140.9487  142.3542  157.7798 C.ar    1  UNL1        0.1023
     16 N         140.5035  143.5524  156.9947 N.ar    1  UNL1       -0.2224
     17 C         141.2832  144.8315  157.0718 C.ar    1  UNL1        0.1989
     18 N         142.5080  144.9125  157.9339 N.ar    1  UNL1       -0.2224
     19 C         142.9532  143.7144  158.7189 C.ar    1  UNL1        0.1023
     20 C         142.0586  139.6191  163.0072 C.2     1  UNL1        0.2510
     21 O         142.4509  138.3875  163.7683 O.2     1  UNL1       -0.2698
     22 N         141.1636  140.6407  163.6438 N.am    1  UNL1       -0.2803
     23 H         140.9060  141.4490  163.1443 H       1  UNL1        0.1552
     24 C         140.6609  140.4307  165.0413 C.ar    1  UNL1        0.0507
     25 C         141.3822  141.0543  166.1994 C.ar    1  UNL1        0.0178
     26 C         140.8795  140.8443  167.5970 C.ar    1  UNL1        0.0385
     27 C         139.6556  140.0108  167.8365 C.ar    1  UNL1        0.1469
     28 C         138.9344  139.3873  166.6785 C.ar    1  UNL1        0.0385
     29 C         139.4370  139.5973  165.2809 C.ar    1  UNL1        0.0178
     30 O         139.1529  139.8009  169.2341 O.3     1  UNL1       -0.4045
     31 C         139.8681  140.4331  170.3913 C.3     1  UNL1        0.5753
     32 F         140.5831  141.0654  171.5483 F       1  UNL1       -0.1328
     33 F         138.9762  141.6346  170.2859 F       1  UNL1       -0.1328
     34 F         140.7599  139.2317  170.4966 F       1  UNL1       -0.1328
@<TRIPOS>BOND
     1     7     8    1
     2     8     9    1
     3     9    10    1
     4    10    11    1
     5    11     1    1
     6     1     2   ar
     7     2     3   ar
     8     3     4   ar
     9     4    20    1
    10    20    21    2
    11    20    22   am
    12    22    24    1
    13    24    25   ar
    14    25    26   ar
    15    26    27   ar
    16    27    30    1
    17    30    31    1
    18    31    32    1
    19    31    33    1
    20    31    34    1
    21    27    28   ar
    22    28    29   ar
    23     4     5   ar
    24     5     6   ar
    25     6    14    1
    26    14    15   ar
    27    15    16   ar
    28    16    17   ar
    29    17    18   ar
    30    18    19   ar
    31    11    12    1
    32    12    13    1
    33    13     8    1
    34     6     1   ar
    35    19    14   ar
    36    29    24   ar
    37    22    23    1
@<TRIPOS>MOLECULE
*****
 34 37 0 0 0
SMALL
GASTEIGER

@<TRIPOS>ATOM
      1 C         140.3223  144.5484  158.8933 C.ar    1  UNL1        0.1318
      2 N         140.7937  145.3279  160.0850 N.ar    1  UNL1       -0.2290
      3 C         140.5437  144.8064  161.4690 C.ar    1  UNL1        0.1048
      4 C         139.8224  143.5054  161.6614 C.ar    1  UNL1        0.0729
      5 C         139.3510  142.7259  160.4697 C.ar    1  UNL1        0.0090
      6 C         139.6010  143.2474  159.0857 C.ar    1  UNL1        0.0348
      7 C         141.3222  146.6345  153.3572 C.3     1  UNL1        0.0897
      8 N         141.0722  146.1129  154.7412 N.3     1  UNL1       -0.2686
      9 C         142.0332  145.1430  155.3621 C.3     1  UNL1        0.0939
     10 C         141.7833  144.6215  156.7462 C.3     1  UNL1        0.1095
     11 N         140.5723  145.0699  157.5093 N.pl3   1  UNL1       -0.2904
     12 C         139.6113  146.0399  156.8884 C.3     1  UNL1        0.1095
     13 C         139.8613  146.5614  155.5043 C.3     1  UNL1        0.0939
     14 C         139.1296  142.4679  157.8939 C.ar    1  UNL1        0.0411
     15 C         140.0150  141.4221  157.2838 C.ar    1  UNL1        0.1023
     16 N         139.5436  140.6425  156.0920 N.ar    1  UNL1       -0.2224
     17 C         138.1867  140.9088  155.5105 C.ar    1  UNL1        0.1989
     18 N         137.3013  141.9547  156.1208 N.ar    1  UNL1       -0.2224
     19 C         137.7728  142.7342  157.3124 C.ar    1  UNL1        0.1023
     20 C         139.5724  142.9839  163.0454 C.2     1  UNL1        0.2510
     21 O         138.6358  143.7119  163.9634 O.2     1  UNL1       -0.2698
     22 N         140.2591  141.7344  163.5115 N.am    1  UNL1       -0.2803
     23 H         140.8738  141.2566  162.9089 H       1  UNL1        0.1552
     24 C         140.0091  141.2129  164.8955 C.ar    1  UNL1        0.0507
     25 C         140.7153  141.8276  166.0675 C.ar    1  UNL1        0.0178
     26 C         140.4653  141.3061  167.4515 C.ar    1  UNL1        0.0385
     27 C         139.5092  140.1699  167.6635 C.ar    1  UNL1        0.1469
     28 C         138.8031  139.5552  166.4916 C.ar    1  UNL1        0.0385
     29 C         139.0530  140.0767  165.1075 C.ar    1  UNL1        0.0178
     30 O         139.2592  139.6483  169.0476 O.3     1  UNL1       -0.4045
     31 C         139.8938  140.3212  170.2286 C.3     1  UNL1        0.5753
     32 F         140.5284  140.9939  171.4095 F       1  UNL1       -0.1328
     33 F         140.9964  139.3043  170.2153 F       1  UNL1       -0.1328
     34 F         138.7912  141.3380  170.2418 F       1  UNL1       -0.1328
@<TRIPOS>BOND
     1     7     8    1
     2     8     9    1
     3     9    10    1
     4    10    11    1
     5    11     1    1
     6     1     2   ar
     7     2     3   ar
     8     3     4   ar
     9     4    20    1
    10    20    21    2
    11    20    22   am
    12    22    24    1
    13    24    25   ar
    14    25    26   ar
    15    26    27   ar
    16    27    30    1
    17    30    31    1
    18    31    32    1
    19    31    33    1
    20    31    34    1
    21    27    28   ar
    22    28    29   ar
    23     4     5   ar
    24     5     6   ar
    25     6    14    1
    26    14    15   ar
    27    15    16   ar
    28    16    17   ar
    29    17    18   ar
    30    18    19   ar
    31    11    12    1
    32    12    13    1
    33    13     8    1
    34     6     1   ar
    35    19    14   ar
    36    29    24   ar
    37    22    23    1
@<TRIPOS>MOLECULE
*****
 34 37 0 0 0
SMALL
GASTEIGER

@<TRIPOS>ATOM
      1 C         141.5069  140.3906  161.8193 C.ar    1  UNL1        0.1318
      2 N         142.5180  139.4593  161.2192 N.ar    1  UNL1       -0.2290
      3 C         143.3248  139.8928  160.0313 C.ar    1  UNL1        0.1048
      4 C         143.1206  141.2577  159.4436 C.ar    1  UNL1        0.0729
      5 C         142.1095  142.1890  160.0438 C.ar    1  UNL1        0.0090
      6 C         141.3026  141.7555  161.2317 C.ar    1  UNL1        0.0348
      7 C         138.2794  138.6565  166.5708 C.3     1  UNL1        0.0897
      8 N         139.0863  139.0900  165.3829 N.3     1  UNL1       -0.2686
      9 C         138.5818  138.8231  163.9958 C.3     1  UNL1        0.0939
     10 C         139.3887  139.2566  162.8079 C.3     1  UNL1        0.1095
     11 N         140.7000  139.9571  163.0072 N.pl3   1  UNL1       -0.2904
     12 C         141.2045  140.2240  164.3944 C.3     1  UNL1        0.1095
     13 C         140.3976  139.7904  165.5822 C.3     1  UNL1        0.0939
     14 C         140.2915  142.6869  161.8319 C.ar    1  UNL1        0.0411
     15 C         138.8705  142.6610  161.3524 C.ar    1  UNL1        0.1023
     16 N         137.8593  143.5924  161.9526 N.ar    1  UNL1       -0.2224
     17 C         138.2693  144.5496  163.0322 C.ar    1  UNL1        0.1989
     18 N         139.6904  144.5754  163.5117 N.ar    1  UNL1       -0.2224
     19 C         140.7015  143.6441  162.9115 C.ar    1  UNL1        0.1023
     20 C         143.9275  141.6912  158.2558 C.2     1  UNL1        0.2510
     21 O         143.7657  143.0768  157.7045 O.2     1  UNL1       -0.2698
     22 N         144.8961  140.7392  157.6192 N.am    1  UNL1       -0.2803
     23 H         145.0023  139.8298  157.9810 H       1  UNL1        0.1552
     24 C         145.7030  141.1727  156.4313 C.ar    1  UNL1        0.0507
     25 C         146.8185  142.1608  156.6026 C.ar    1  UNL1        0.0178
     26 C         147.6254  142.5943  155.4148 C.ar    1  UNL1        0.0385
     27 C         147.3167  142.0398  154.0556 C.ar    1  UNL1        0.1469
     28 C         146.2012  141.0518  153.8844 C.ar    1  UNL1        0.0385
     29 C         145.3943  140.6182  155.0722 C.ar    1  UNL1        0.0178
     30 O         148.1236  142.4733  152.8677 O.3     1  UNL1       -0.4045
     31 C         149.3252  143.3510  153.0572 C.3     1  UNL1        0.5753
     32 F         150.5267  144.2287  153.2466 F       1  UNL1       -0.1328
     33 F         148.4489  144.5663  152.9846 F       1  UNL1       -0.1328
     34 F         150.2015  142.1358  153.1298 F       1  UNL1       -0.1328
@<TRIPOS>BOND
     1     7     8    1
     2     8     9    1
     3     9    10    1
     4    10    11    1
     5    11     1    1
     6     1     2   ar
     7     2     3   ar
     8     3     4   ar
     9     4    20    1
    10    20    21    2
    11    20    22   am
    12    22    24    1
    13    24    25   ar
    14    25    26   ar
    15    26    27   ar
    16    27    30    1
    17    30    31    1
    18    31    32    1
    19    31    33    1
    20    31    34    1
    21    27    28   ar
    22    28    29   ar
    23     4     5   ar
    24     5     6   ar
    25     6    14    1
    26    14    15   ar
    27    15    16   ar
    28    16    17   ar
    29    17    18   ar
    30    18    19   ar
    31    11    12    1
    32    12    13    1
    33    13     8    1
    34     6     1   ar
    35    19    14   ar
    36    29    24   ar
    37    22    23    1
@<TRIPOS>MOLECULE
*****
 34 37 0 0 0
SMALL
GASTEIGER

@<TRIPOS>ATOM
      1 C         140.7882  142.3284  164.8360 C.ar    1  UNL1        0.1318
      2 N         140.6827  143.8238  164.7877 N.ar    1  UNL1       -0.2290
      3 C         140.4937  144.5203  163.4727 C.ar    1  UNL1        0.1048
      4 C         140.4102  143.7213  162.2060 C.ar    1  UNL1        0.0729
      5 C         140.5157  142.2258  162.2543 C.ar    1  UNL1        0.0090
      6 C         140.7048  141.5294  163.5693 C.ar    1  UNL1        0.0348
      7 C         141.5443  139.5425  170.0959 C.3     1  UNL1        0.0897
      8 N         141.3553  140.2389  168.7809 N.3     1  UNL1       -0.2686
      9 C         142.5433  140.7749  168.0385 C.3     1  UNL1        0.0939
     10 C         142.3543  141.4714  166.7235 C.3     1  UNL1        0.1095
     11 N         140.9772  141.6319  166.1510 N.pl3   1  UNL1       -0.2904
     12 C         139.7892  141.0959  166.8934 C.3     1  UNL1        0.1095
     13 C         139.9782  140.3994  168.2084 C.3     1  UNL1        0.0939
     14 C         140.8103  140.0338  163.6175 C.ar    1  UNL1        0.0411
     15 C         142.1584  139.3762  163.6031 C.ar    1  UNL1        0.1023
     16 N         142.2639  137.8807  163.6514 N.ar    1  UNL1       -0.2224
     17 C         141.0214  137.0428  163.7140 C.ar    1  UNL1        0.1989
     18 N         139.6732  137.7004  163.7283 N.ar    1  UNL1       -0.2224
     19 C         139.5677  139.1959  163.6801 C.ar    1  UNL1        0.1023
     20 C         140.2212  144.4178  160.8910 C.2     1  UNL1        0.2510
     21 O         139.5444  145.7555  160.8413 O.2     1  UNL1       -0.2698
     22 N         140.7090  143.7766  159.6258 N.am    1  UNL1       -0.2803
     23 H         141.1532  142.8986  159.6584 H       1  UNL1        0.1552
     24 C         140.5200  144.4731  158.3108 C.ar    1  UNL1        0.0507
     25 C         141.3934  145.6368  157.9461 C.ar    1  UNL1        0.0178
     26 C         141.2044  146.3333  156.6311 C.ar    1  UNL1        0.0385
     27 C         140.1419  145.8660  155.6808 C.ar    1  UNL1        0.1469
     28 C         139.2686  144.7024  156.0455 C.ar    1  UNL1        0.0385
     29 C         139.4576  144.0059  157.3605 C.ar    1  UNL1        0.0178
     30 O         139.9529  146.5625  154.3658 O.3     1  UNL1       -0.4045
     31 C         139.6969  148.0401  154.3297 C.3     1  UNL1        0.5753
     32 F         139.4409  149.5176  154.2936 F       1  UNL1       -0.1328
     33 F         138.5101  147.8564  155.2284 F       1  UNL1       -0.1328
     34 F         140.8837  148.2238  153.4310 F       1  UNL1       -0.1328
@<TRIPOS>BOND
     1     7     8    1
     2     8     9    1
     3     9    10    1
     4    10    11    1
     5    11     1    1
     6     1     2   ar
     7     2     3   ar
     8     3     4   ar
     9     4    20    1
    10    20    21    2
    11    20    22   am
    12    22    24    1
    13    24    25   ar
    14    25    26   ar
    15    26    27   ar
    16    27    30    1
    17    30    31    1
    18    31    32    1
    19    31    33    1
    20    31    34    1
    21    27    28   ar
    22    28    29   ar
    23     4     5   ar
    24     5     6   ar
    25     6    14    1
    26    14    15   ar
    27    15    16   ar
    28    16    17   ar
    29    17    18   ar
    30    18    19   ar
    31    11    12    1
    32    12    13    1
    33    13     8    1
    34     6     1   ar
    35    19    14   ar
    36    29    24   ar
    37    22    23    1
@<TRIPOS>MOLECULE
*****
 34 37 0 0 0
SMALL
GASTEIGER

@<TRIPOS>ATOM
      1 C         141.8885  142.9133  160.5883 C.ar    1  UNL1        0.1318
      2 N         141.4910  142.6534  159.1655 N.ar    1  UNL1       -0.2290
      3 C         142.5345  142.2977  158.1483 C.ar    1  UNL1        0.1048
      4 C         143.9754  142.2020  158.5539 C.ar    1  UNL1        0.0729
      5 C         144.3729  142.4620  159.9767 C.ar    1  UNL1        0.0090
      6 C         143.3294  142.8176  160.9939 C.ar    1  UNL1        0.0348
      7 C         137.7147  144.3359  164.6572 C.3     1  UNL1        0.0897
      8 N         138.7582  143.9803  163.6400 N.3     1  UNL1       -0.2686
      9 C         139.2783  145.0282  162.7013 C.3     1  UNL1        0.0939
     10 C         140.3218  144.6725  161.6840 C.3     1  UNL1        0.1095
     11 N         140.8451  143.2690  161.6055 N.pl3   1  UNL1       -0.2904
     12 C         140.3249  142.2211  162.5443 C.3     1  UNL1        0.1095
     13 C         139.2814  142.5767  163.5615 C.3     1  UNL1        0.0939
     14 C         143.7270  143.0776  162.4168 C.ar    1  UNL1        0.0411
     15 C         144.1231  141.9359  163.3054 C.ar    1  UNL1        0.1023
     16 N         144.5206  142.1959  164.7282 N.ar    1  UNL1       -0.2224
     17 C         144.5220  143.5976  165.2624 C.ar    1  UNL1        0.1989
     18 N         144.1259  144.7393  164.3737 N.ar    1  UNL1       -0.2224
     19 C         143.7284  144.4793  162.9509 C.ar    1  UNL1        0.1023
     20 C         145.0188  141.8464  157.5367 C.2     1  UNL1        0.2510
     21 O         145.1944  140.4192  157.1098 O.2     1  UNL1       -0.2698
     22 N         145.8867  142.9179  156.9464 N.am    1  UNL1       -0.2803
     23 H         145.7715  143.8547  157.2265 H       1  UNL1        0.1552
     24 C         146.9302  142.5623  155.9291 C.ar    1  UNL1        0.0507
     25 C         146.5927  142.5887  154.4678 C.ar    1  UNL1        0.0178
     26 C         147.6362  142.2331  153.4506 C.ar    1  UNL1        0.0385
     27 C         149.0171  141.8510  153.8947 C.ar    1  UNL1        0.1469
     28 C         149.3545  141.8246  155.3560 C.ar    1  UNL1        0.0385
     29 C         148.3110  142.1802  156.3732 C.ar    1  UNL1        0.0178
     30 O         150.0605  141.4953  152.8775 O.3     1  UNL1       -0.4045
     31 C         151.5098  141.4783  153.2641 C.3     1  UNL1        0.5753
     32 F         152.9590  141.4612  153.6507 F       1  UNL1       -0.1328
     33 F         151.5695  142.9687  153.1058 F       1  UNL1       -0.1328
     34 F         151.4500  139.9879  153.4224 F       1  UNL1       -0.1328
@<TRIPOS>BOND
     1     7     8    1
     2     8     9    1
     3     9    10    1
     4    10    11    1
     5    11     1    1
     6     1     2   ar
     7     2     3   ar
     8     3     4   ar
     9     4    20    1
    10    20    21    2
    11    20    22   am
    12    22    24    1
    13    24    25   ar
    14    25    26   ar
    15    26    27   ar
    16    27    30    1
    17    30    31    1
    18    31    32    1
    19    31    33    1
    20    31    34    1
    21    27    28   ar
    22    28    29   ar
    23     4     5   ar
    24     5     6   ar
    25     6    14    1
    26    14    15   ar
    27    15    16   ar
    28    16    17   ar
    29    17    18   ar
    30    18    19   ar
    31    11    12    1
    32    12    13    1
    33    13     8    1
    34     6     1   ar
    35    19    14   ar
    36    29    24   ar
    37    22    23    1
@<TRIPOS>MOLECULE
*****
 34 37 0 0 0
SMALL
GASTEIGER

@<TRIPOS>ATOM
      1 C         140.9740  143.3840  162.5179 C.ar    1  UNL1        0.1318
      2 N         140.3017  144.7191  162.3940 N.ar    1  UNL1       -0.2290
      3 C         140.3460  145.4633  161.0923 C.ar    1  UNL1        0.1048
      4 C         141.0625  144.8723  159.9145 C.ar    1  UNL1        0.0729
      5 C         141.7348  143.5371  160.0384 C.ar    1  UNL1        0.0090
      6 C         141.6906  142.7930  161.3401 C.ar    1  UNL1        0.0348
      7 C         140.7970  140.4075  167.7245 C.3     1  UNL1        0.0897
      8 N         140.8413  141.1516  166.4228 N.3     1  UNL1       -0.2686
      9 C         141.9451  142.1316  166.1563 C.3     1  UNL1        0.0939
     10 C         141.9894  142.8758  164.8547 C.3     1  UNL1        0.1095
     11 N         140.9298  142.6399  163.8195 N.pl3   1  UNL1       -0.2904
     12 C         139.8260  141.6599  164.0860 C.3     1  UNL1        0.1095
     13 C         139.7817  140.9157  165.3877 C.3     1  UNL1        0.0939
     14 C         142.3629  141.4578  161.4639 C.ar    1  UNL1        0.0411
     15 C         141.5960  140.2020  161.1729 C.ar    1  UNL1        0.1023
     16 N         142.2683  138.8668  161.2967 N.ar    1  UNL1       -0.2224
     17 C         143.7076  138.7875  161.7116 C.ar    1  UNL1        0.1989
     18 N         144.4746  140.0434  162.0026 N.ar    1  UNL1       -0.2224
     19 C         143.8022  141.3785  161.8788 C.ar    1  UNL1        0.1023
     20 C         141.1068  145.6164  158.6129 C.2     1  UNL1        0.2510
     21 O         142.3944  146.2224  158.1388 O.2     1  UNL1       -0.2698
     22 N         139.8634  145.7545  157.7853 N.am    1  UNL1       -0.2803
     23 H         139.0183  145.3567  158.0964 H       1  UNL1        0.1552
     24 C         139.9077  146.4986  156.4836 C.ar    1  UNL1        0.0507
     25 C         139.1804  147.8027  156.3401 C.ar    1  UNL1        0.0178
     26 C         139.2247  148.5469  155.0385 C.ar    1  UNL1        0.0385
     27 C         139.9962  147.9869  153.8803 C.ar    1  UNL1        0.1469
     28 C         140.7234  146.6829  154.0238 C.ar    1  UNL1        0.0385
     29 C         140.6791  145.9387  155.3255 C.ar    1  UNL1        0.0178
     30 O         140.0404  148.7310  152.5787 O.3     1  UNL1       -0.4045
     31 C         140.6014  150.1213  152.5282 C.3     1  UNL1        0.5753
     32 F         141.1624  151.5115  152.4778 F       1  UNL1       -0.1328
     33 F         141.9924  149.5613  152.5648 F       1  UNL1       -0.1328
     34 F         139.2104  150.6813  152.4917 F       1  UNL1       -0.1328
@<TRIPOS>BOND
     1     7     8    1
     2     8     9    1
     3     9    10    1
     4    10    11    1
     5    11     1    1
     6     1     2   ar
     7     2     3   ar
     8     3     4   ar
     9     4    20    1
    10    20    21    2
    11    20    22   am
    12    22    24    1
    13    24    25   ar
    14    25    26   ar
    15    26    27   ar
    16    27    30    1
    17    30    31    1
    18    31    32    1
    19    31    33    1
    20    31    34    1
    21    27    28   ar
    22    28    29   ar
    23     4     5   ar
    24     5     6   ar
    25     6    14    1
    26    14    15   ar
    27    15    16   ar
    28    16    17   ar
    29    17    18   ar
    30    18    19   ar
    31    11    12    1
    32    12    13    1
    33    13     8    1
    34     6     1   ar
    35    19    14   ar
    36    29    24   ar
    37    22    23    1
