@<TRIPOS>MOLECULE
*****
 35 38 0 0 0
SMALL
GASTEIGER

@<TRIPOS>ATOM
      1 C         141.0838  144.8506  160.2027 C.ar    1  UNL1        0.2512
      2 N         139.9158  145.5945  159.6265 N.ar    1  UNL1       -0.1058
      3 N         140.2802  146.0248  158.2365 N.ar    1  UNL1       -0.0923
      4 C         141.6736  145.5467  157.9537 C.ar    1  UNL1        0.3086
      5 O         142.1702  144.8210  159.1689 O.2     1  UNL1       -0.4048
      6 C         141.2924  143.0275  164.3116 C.ar    1  UNL1        0.0505
      7 C         141.3434  142.1482  163.0974 C.ar    1  UNL1        0.0148
      8 C         141.2738  142.7558  161.7278 C.ar    1  UNL1        0.0060
      9 C         141.1533  144.2428  161.5723 C.ar    1  UNL1        0.0553
     10 C         141.1024  145.1223  162.7865 C.ar    1  UNL1        0.0060
     11 C         141.1719  144.5146  164.1561 C.ar    1  UNL1        0.0148
     12 O         143.9550  142.3678  165.5265 O.2     1  UNL1       -0.2697
     13 C         142.6933  142.0899  166.2887 C.2     1  UNL1        0.2517
     14 N         141.3620  142.4198  165.6813 N.am    1  UNL1       -0.2803
     15 H         140.5339  142.2374  166.1815 H       1  UNL1        0.1552
     16 C         142.7628  141.4823  167.6582 C.ar    1  UNL1        0.0811
     17 C         143.2826  142.2889  168.8111 C.ar    1  UNL1        0.0068
     18 C         143.3522  141.6813  170.1808 C.ar    1  UNL1        0.0003
     19 C         142.9018  140.2670  170.3976 C.ar    1  UNL1        0.0023
     20 C         142.3820  139.4604  169.2447 C.ar    1  UNL1        0.0298
     21 C         142.3124  140.0680  167.8750 C.ar    1  UNL1        0.1445
     22 F         141.7926  139.2613  166.7221 F       1  UNL1       -0.2040
     23 N         142.4364  145.7574  156.6794 N.pl3   1  UNL1       -0.2871
     24 H         142.9266  146.5984  156.5324 H       1  UNL1        0.1512
     25 C         142.4522  144.6865  155.6290 C.3     1  UNL1        0.0912
     26 C         142.4968  143.2422  156.0313 C.3     1  UNL1        0.0227
     27 C         143.7186  142.6878  156.7021 C.3     1  UNL1        0.0191
     28 C         143.6645  141.3448  157.3678 C.3     1  UNL1        0.0722
     29 N         143.9523  141.2226  158.8348 N.3     1  UNL1       -0.2705
     30 C         143.6623  139.8836  159.4456 C.3     1  UNL1        0.0748
     31 C         143.8404  139.4469  160.8696 C.3     1  UNL1        0.0494
     32 C         144.3525  140.2412  162.0343 C.3     1  UNL1        0.1437
     33 O         144.8131  141.6685  162.0629 O.3     1  UNL1       -0.3522
     34 C         144.8752  142.6539  160.9337 C.3     1  UNL1        0.1594
     35 C         144.4921  142.4554  159.4971 C.3     1  UNL1        0.1046
@<TRIPOS>BOND
     1    12    13    2
     2    13    14   am
     3    14     6    1
     4     6     7   ar
     5     7     8   ar
     6     8     9   ar
     7     9     1    1
     8     1     2   ar
     9     2     3   ar
    10     3     4   ar
    11     4    23    1
    12    23    25    1
    13    25    26    1
    14    26    27    1
    15    27    28    1
    16    28    29    1
    17    29    30    1
    18    30    31    1
    19    31    32    1
    20    32    33    1
    21    33    34    1
    22    34    35    1
    23     4     5   ar
    24     9    10   ar
    25    10    11   ar
    26    13    16    1
    27    16    17   ar
    28    17    18   ar
    29    18    19   ar
    30    19    20   ar
    31    20    21   ar
    32    21    22    1
    33    11     6   ar
    34    21    16   ar
    35     5     1   ar
    36    35    29    1
    37    14    15    1
    38    23    24    1
@<TRIPOS>MOLECULE
*****
 35 38 0 0 0
SMALL
GASTEIGER

@<TRIPOS>ATOM
      1 C         140.0561  143.0569  160.2542 C.ar    1  UNL1        0.2512
      2 N         139.7830  144.3653  159.5734 N.ar    1  UNL1       -0.1058
      3 N         139.6559  145.4208  160.6315 N.ar    1  UNL1       -0.0923
      4 C         139.8504  144.7647  161.9664 C.ar    1  UNL1        0.3086
      5 O         140.0977  143.3037  161.7332 O.2     1  UNL1       -0.4048
      6 C         140.6467  139.0878  158.2177 C.ar    1  UNL1        0.0505
      7 C         140.0684  140.2431  157.4556 C.ar    1  UNL1        0.0148
      8 C         139.8715  141.5661  158.1343 C.ar    1  UNL1        0.0060
      9 C         140.2529  141.7339  159.5753 C.ar    1  UNL1        0.0553
     10 C         140.8312  140.5786  160.3375 C.ar    1  UNL1        0.0060
     11 C         141.0281  139.2555  159.6587 C.ar    1  UNL1        0.0148
     12 O         143.3557  138.3225  157.1804 O.2     1  UNL1       -0.2697
     13 C         142.1981  137.3821  157.0202 C.2     1  UNL1        0.2517
     14 N         140.8436  137.7647  157.5389 N.am    1  UNL1       -0.2803
     15 H         140.0838  137.1475  157.4337 H       1  UNL1        0.1552
     16 C         142.3949  136.0591  156.3414 C.ar    1  UNL1        0.0811
     17 C         143.4506  135.1136  156.8331 C.ar    1  UNL1        0.0068
     18 C         143.6475  133.7905  156.1543 C.ar    1  UNL1        0.0003
     19 C         142.7887  133.4129  154.9839 C.ar    1  UNL1        0.0023
     20 C         141.7331  134.3584  154.4922 C.ar    1  UNL1        0.0298
     21 C         141.5362  135.6815  155.1709 C.ar    1  UNL1        0.1445
     22 F         140.4806  136.6270  154.6793 F       1  UNL1       -0.2040
     23 N         139.8055  145.4494  163.3003 N.pl3   1  UNL1       -0.2871
     24 H         140.1412  146.3703  163.3925 H       1  UNL1        0.1512
     25 C         139.2490  144.7310  164.4937 C.3     1  UNL1        0.0912
     26 C         137.9045  144.0709  164.4119 C.3     1  UNL1        0.0227
     27 C         137.7906  142.5816  164.5503 C.3     1  UNL1        0.0191
     28 C         137.6072  141.7269  163.3313 C.3     1  UNL1        0.0722
     29 N         138.4163  140.4749  163.1646 N.3     1  UNL1       -0.2705
     30 C         139.7044  140.4254  163.9317 C.3     1  UNL1        0.0748
     31 C         140.7246  139.3266  163.9765 C.3     1  UNL1        0.0494
     32 C         140.7087  138.0062  163.2653 C.3     1  UNL1        0.1437
     33 O         139.6686  137.4581  162.3336 O.3     1  UNL1       -0.3522
     34 C         138.3876  138.0953  161.8831 C.3     1  UNL1        0.1594
     35 C         137.8303  139.4379  162.2530 C.3     1  UNL1        0.1046
@<TRIPOS>BOND
     1    12    13    2
     2    13    14   am
     3    14     6    1
     4     6     7   ar
     5     7     8   ar
     6     8     9   ar
     7     9     1    1
     8     1     2   ar
     9     2     3   ar
    10     3     4   ar
    11     4    23    1
    12    23    25    1
    13    25    26    1
    14    26    27    1
    15    27    28    1
    16    28    29    1
    17    29    30    1
    18    30    31    1
    19    31    32    1
    20    32    33    1
    21    33    34    1
    22    34    35    1
    23     4     5   ar
    24     9    10   ar
    25    10    11   ar
    26    13    16    1
    27    16    17   ar
    28    17    18   ar
    29    18    19   ar
    30    19    20   ar
    31    20    21   ar
    32    21    22    1
    33    11     6   ar
    34    21    16   ar
    35     5     1   ar
    36    35    29    1
    37    14    15    1
    38    23    24    1
@<TRIPOS>MOLECULE
*****
 35 38 0 0 0
SMALL
GASTEIGER

@<TRIPOS>ATOM
      1 C         141.6703  142.7324  159.4627 C.ar    1  UNL1        0.2512
      2 N         142.4900  143.9861  159.3839 N.ar    1  UNL1       -0.1058
      3 N         141.7407  145.0753  160.0926 N.ar    1  UNL1       -0.0923
      4 C         140.4578  144.4947  160.6095 C.ar    1  UNL1        0.3086
      5 O         140.4143  143.0467  160.2202 O.2     1  UNL1       -0.4048
      6 C         142.7833  138.7309  157.7312 C.ar    1  UNL1        0.0505
      7 C         142.7694  139.9491  156.8561 C.ar    1  UNL1        0.0148
      8 C         142.3984  141.2830  157.4332 C.ar    1  UNL1        0.0060
      9 C         142.0413  141.3987  158.8855 C.ar    1  UNL1        0.0553
     10 C         142.0552  140.1804  159.7607 C.ar    1  UNL1        0.0060
     11 C         142.4262  138.8465  159.1834 C.ar    1  UNL1        0.0148
     12 O         140.6493  136.9125  156.6636 O.2     1  UNL1       -0.2697
     13 C         142.0873  136.4878  156.6202 C.2     1  UNL1        0.2517
     14 N         143.1544  137.3970  157.1539 N.am    1  UNL1       -0.2803
     15 H         144.0982  137.1183  157.1254 H       1  UNL1        0.1552
     16 C         142.4584  135.1540  156.0430 C.ar    1  UNL1        0.0811
     17 C         142.1264  134.8361  154.6151 C.ar    1  UNL1        0.0068
     18 C         142.4974  133.5023  154.0378 C.ar    1  UNL1        0.0003
     19 C         143.2004  132.4863  154.8884 C.ar    1  UNL1        0.0023
     20 C         143.5324  132.8042  156.3162 C.ar    1  UNL1        0.0298
     21 C         143.1614  134.1380  156.8936 C.ar    1  UNL1        0.1445
     22 F         143.4934  134.4559  158.3214 F       1  UNL1       -0.2040
     23 N         139.4035  145.2325  161.3804 N.pl3   1  UNL1       -0.2871
     24 H         138.9490  146.0065  160.9759 H       1  UNL1        0.1512
     25 C         139.0417  144.7910  162.7675 C.3     1  UNL1        0.0912
     26 C         137.7249  144.1189  163.0211 C.3     1  UNL1        0.0227
     27 C         137.6715  142.6383  163.2565 C.3     1  UNL1        0.0191
     28 C         137.8072  141.6901  162.1023 C.3     1  UNL1        0.0722
     29 N         138.7477  140.5252  162.1951 N.3     1  UNL1       -0.2705
     30 C         139.9309  140.7145  163.0976 C.3     1  UNL1        0.0748
     31 C         141.0393  139.7504  163.4011 C.3     1  UNL1        0.0494
     32 C         141.2383  138.3592  162.8771 C.3     1  UNL1        0.1437
     33 O         140.3782  137.5882  161.9201 O.3     1  UNL1       -0.3522
     34 C         139.1065  138.0182  161.2508 C.3     1  UNL1        0.1594
     35 C         138.3809  139.3254  161.3733 C.3     1  UNL1        0.1046
@<TRIPOS>BOND
     1    12    13    2
     2    13    14   am
     3    14     6    1
     4     6     7   ar
     5     7     8   ar
     6     8     9   ar
     7     9     1    1
     8     1     2   ar
     9     2     3   ar
    10     3     4   ar
    11     4    23    1
    12    23    25    1
    13    25    26    1
    14    26    27    1
    15    27    28    1
    16    28    29    1
    17    29    30    1
    18    30    31    1
    19    31    32    1
    20    32    33    1
    21    33    34    1
    22    34    35    1
    23     4     5   ar
    24     9    10   ar
    25    10    11   ar
    26    13    16    1
    27    16    17   ar
    28    17    18   ar
    29    18    19   ar
    30    19    20   ar
    31    20    21   ar
    32    21    22    1
    33    11     6   ar
    34    21    16   ar
    35     5     1   ar
    36    35    29    1
    37    14    15    1
    38    23    24    1
@<TRIPOS>MOLECULE
*****
 35 38 0 0 0
SMALL
GASTEIGER

@<TRIPOS>ATOM
      1 C         141.7227  143.0231  165.2274 C.ar    1  UNL1        0.2512
      2 N         142.9507  142.5228  165.9285 N.ar    1  UNL1       -0.1058
      3 N         142.5359  141.9938  167.2694 N.ar    1  UNL1       -0.0923
      4 C         141.0514  142.1673  167.3971 C.ar    1  UNL1        0.3086
      5 O         140.5488  142.8034  166.1350 O.2     1  UNL1       -0.4048
      6 C         141.5844  144.8605  161.1220 C.ar    1  UNL1        0.0505
      7 C         140.7465  145.4311  162.2276 C.ar    1  UNL1        0.0148
      8 C         140.7926  144.8186  163.5961 C.ar    1  UNL1        0.0060
      9 C         141.6765  143.6356  163.8590 C.ar    1  UNL1        0.0553
     10 C         142.5145  143.0650  162.7533 C.ar    1  UNL1        0.0060
     11 C         142.4683  143.6775  161.3848 C.ar    1  UNL1        0.0148
     12 O         139.4331  144.0580  159.1911 O.2     1  UNL1       -0.2697
     13 C         140.4625  145.0717  158.7881 C.2     1  UNL1        0.2517
     14 N         141.5382  145.4730  159.7535 N.am    1  UNL1       -0.2803
     15 H         142.2139  146.1384  159.4889 H       1  UNL1        0.1552
     16 C         140.4165  145.6842  157.4196 C.ar    1  UNL1        0.0811
     17 C         139.4380  146.7814  157.1216 C.ar    1  UNL1        0.0068
     18 C         139.3918  147.3940  155.7532 C.ar    1  UNL1        0.0003
     19 C         140.3242  146.9094  154.6827 C.ar    1  UNL1        0.0023
     20 C         141.3026  145.8122  154.9807 C.ar    1  UNL1        0.0298
     21 C         141.3488  145.1996  156.3492 C.ar    1  UNL1        0.1445
     22 F         142.3272  144.1024  156.6472 F       1  UNL1       -0.2040
     23 N         140.2161  141.7737  168.5793 N.pl3   1  UNL1       -0.2871
     24 H         140.0949  142.4019  169.3275 H       1  UNL1        0.1512
     25 C         139.5653  140.4228  168.6213 C.3     1  UNL1        0.0912
     26 C         139.6806  139.4980  167.4459 C.3     1  UNL1        0.0227
     27 C         138.5085  139.2978  166.5314 C.3     1  UNL1        0.0191
     28 C         138.2675  140.2537  165.4009 C.3     1  UNL1        0.0722
     29 N         138.7569  139.9232  164.0220 N.3     1  UNL1       -0.2705
     30 C         139.0349  141.0977  163.1313 C.3     1  UNL1        0.0748
     31 C         139.5283  141.1010  161.7147 C.3     1  UNL1        0.0494
     32 C         139.8654  139.9308  160.8391 C.3     1  UNL1        0.1437
     33 O         139.7925  138.4681  161.1636 O.3     1  UNL1       -0.3522
     34 C         139.3644  137.8145  162.4440 C.3     1  UNL1        0.1594
     35 C         138.9035  138.4622  163.7161 C.3     1  UNL1        0.1046
@<TRIPOS>BOND
     1    12    13    2
     2    13    14   am
     3    14     6    1
     4     6     7   ar
     5     7     8   ar
     6     8     9   ar
     7     9     1    1
     8     1     2   ar
     9     2     3   ar
    10     3     4   ar
    11     4    23    1
    12    23    25    1
    13    25    26    1
    14    26    27    1
    15    27    28    1
    16    28    29    1
    17    29    30    1
    18    30    31    1
    19    31    32    1
    20    32    33    1
    21    33    34    1
    22    34    35    1
    23     4     5   ar
    24     9    10   ar
    25    10    11   ar
    26    13    16    1
    27    16    17   ar
    28    17    18   ar
    29    18    19   ar
    30    19    20   ar
    31    20    21   ar
    32    21    22    1
    33    11     6   ar
    34    21    16   ar
    35     5     1   ar
    36    35    29    1
    37    14    15    1
    38    23    24    1
@<TRIPOS>MOLECULE
*****
 35 38 0 0 0
SMALL
GASTEIGER

@<TRIPOS>ATOM
      1 C         143.9737  141.2124  160.9815 C.ar    1  UNL1        0.2512
      2 N         144.9531  141.0067  162.0988 N.ar    1  UNL1       -0.1058
      3 N         145.1411  142.3201  162.7984 N.ar    1  UNL1       -0.0923
      4 C         144.2778  143.3378  162.1134 C.ar    1  UNL1        0.3086
      5 O         143.5563  142.6532  160.9906 O.2     1  UNL1       -0.4048
      6 C         142.5393  138.0611  158.1073 C.ar    1  UNL1        0.0505
      7 C         142.5710  139.5007  157.6873 C.ar    1  UNL1        0.0148
      8 C         143.0491  140.5512  158.6453 C.ar    1  UNL1        0.0060
      9 C         143.4956  140.1621  160.0234 C.ar    1  UNL1        0.0553
     10 C         143.4640  138.7224  160.4436 C.ar    1  UNL1        0.0060
     11 C         142.9858  137.6719  159.4854 C.ar    1  UNL1        0.0148
     12 O         144.3773  137.0300  155.9722 O.2     1  UNL1       -0.2697
     13 C         142.9802  136.4951  156.0816 C.2     1  UNL1        0.2517
     14 N         142.0612  137.0106  157.1492 N.am    1  UNL1       -0.2803
     15 H         141.1442  136.6595  157.2210 H       1  UNL1        0.1552
     16 C         142.5021  135.4447  155.1236 C.ar    1  UNL1        0.0811
     17 C         142.1995  135.8095  153.7004 C.ar    1  UNL1        0.0068
     18 C         141.7213  134.7591  152.7423 C.ar    1  UNL1        0.0003
     19 C         141.5457  133.3439  153.2073 C.ar    1  UNL1        0.0023
     20 C         141.8483  132.9791  154.6304 C.ar    1  UNL1        0.0298
     21 C         142.3265  134.0294  155.5886 C.ar    1  UNL1        0.1445
     22 F         142.6291  133.6646  157.0117 F       1  UNL1       -0.2040
     23 N         144.1571  144.7858  162.4859 N.pl3   1  UNL1       -0.2871
     24 H         144.5270  145.4792  161.8929 H       1  UNL1        0.1512
     25 C         143.4729  145.1774  163.7621 C.3     1  UNL1        0.0912
     26 C         142.0008  145.4651  163.7660 C.3     1  UNL1        0.0227
     27 C         141.0155  144.3341  163.7564 C.3     1  UNL1        0.0191
     28 C         141.0807  143.2737  164.8153 C.3     1  UNL1        0.0722
     29 N         140.5240  141.9075  164.5439 N.3     1  UNL1       -0.2705
     30 C         139.2038  141.6031  165.1878 C.3     1  UNL1        0.0748
     31 C         138.3946  140.3423  165.1113 C.3     1  UNL1        0.0494
     32 C         138.7058  139.0748  164.3721 C.3     1  UNL1        0.1437
     33 O         139.9029  138.7547  163.5269 O.3     1  UNL1       -0.3522
     34 C         141.0846  139.6233  163.2120 C.3     1  UNL1        0.1594
     35 C         141.3610  141.0265  163.6647 C.3     1  UNL1        0.1046
@<TRIPOS>BOND
     1    12    13    2
     2    13    14   am
     3    14     6    1
     4     6     7   ar
     5     7     8   ar
     6     8     9   ar
     7     9     1    1
     8     1     2   ar
     9     2     3   ar
    10     3     4   ar
    11     4    23    1
    12    23    25    1
    13    25    26    1
    14    26    27    1
    15    27    28    1
    16    28    29    1
    17    29    30    1
    18    30    31    1
    19    31    32    1
    20    32    33    1
    21    33    34    1
    22    34    35    1
    23     4     5   ar
    24     9    10   ar
    25    10    11   ar
    26    13    16    1
    27    16    17   ar
    28    17    18   ar
    29    18    19   ar
    30    19    20   ar
    31    20    21   ar
    32    21    22    1
    33    11     6   ar
    34    21    16   ar
    35     5     1   ar
    36    35    29    1
    37    14    15    1
    38    23    24    1
@<TRIPOS>MOLECULE
*****
 35 38 0 0 0
SMALL
GASTEIGER

@<TRIPOS>ATOM
      1 C         139.8042  142.9375  161.1429 C.ar    1  UNL1        0.2512
      2 N         138.8305  144.0550  161.3731 N.ar    1  UNL1       -0.1058
      3 N         137.8248  143.5926  162.3853 N.ar    1  UNL1       -0.0923
      4 C         138.1770  142.1891  162.7809 C.ar    1  UNL1        0.3086
      5 O         139.4003  141.7842  162.0130 O.2     1  UNL1       -0.4048
      6 C         143.3198  143.0282  158.3355 C.ar    1  UNL1        0.0505
      7 C         141.9296  143.2104  157.8026 C.ar    1  UNL1        0.0148
      8 C         140.7576  143.1802  158.7384 C.ar    1  UNL1        0.0060
      9 C         140.9760  142.9677  160.2071 C.ar    1  UNL1        0.0553
     10 C         142.3663  142.7854  160.7401 C.ar    1  UNL1        0.0060
     11 C         143.5382  142.8156  159.8042 C.ar    1  UNL1        0.0148
     12 O         144.6103  140.4637  157.4643 O.2     1  UNL1       -0.2697
     13 C         145.1369  141.7761  156.9641 C.2     1  UNL1        0.2517
     14 N         144.4917  143.0584  157.3996 N.am    1  UNL1       -0.2803
     15 H         144.8374  143.9197  157.0713 H       1  UNL1        0.1552
     16 C         146.3088  141.8064  156.0283 C.ar    1  UNL1        0.0811
     17 C         146.1674  141.2769  154.6320 C.ar    1  UNL1        0.0068
     18 C         147.3391  141.3071  153.6960 C.ar    1  UNL1        0.0003
     19 C         148.6524  141.8669  154.1564 C.ar    1  UNL1        0.0023
     20 C         148.7939  142.3964  155.5527 C.ar    1  UNL1        0.0298
     21 C         147.6221  142.3661  156.4887 C.ar    1  UNL1        0.1445
     22 F         147.7635  142.8956  157.8850 F       1  UNL1       -0.2040
     23 N         137.4359  141.3397  163.7706 N.pl3   1  UNL1       -0.2871
     24 H         136.5192  141.5803  164.0369 H       1  UNL1        0.1512
     25 C         138.0918  140.1235  164.3545 C.3     1  UNL1        0.0912
     26 C         138.7593  140.2023  165.6954 C.3     1  UNL1        0.0227
     27 C         139.7784  141.2697  165.9643 C.3     1  UNL1        0.0191
     28 C         141.2020  141.0727  165.5348 C.3     1  UNL1        0.0722
     29 N         141.9513  142.1970  164.8833 N.3     1  UNL1       -0.2705
     30 C         141.1667  143.4546  164.6529 C.3     1  UNL1        0.0748
     31 C         141.6232  144.7409  164.0306 C.3     1  UNL1        0.0494
     32 C         142.9767  145.0872  163.4851 C.3     1  UNL1        0.1437
     33 O         144.2083  144.2329  163.4270 O.3     1  UNL1       -0.3522
     34 C         144.3904  142.8212  163.9001 C.3     1  UNL1        0.1594
     35 C         143.3859  141.9152  164.5483 C.3     1  UNL1        0.1046
@<TRIPOS>BOND
     1    12    13    2
     2    13    14   am
     3    14     6    1
     4     6     7   ar
     5     7     8   ar
     6     8     9   ar
     7     9     1    1
     8     1     2   ar
     9     2     3   ar
    10     3     4   ar
    11     4    23    1
    12    23    25    1
    13    25    26    1
    14    26    27    1
    15    27    28    1
    16    28    29    1
    17    29    30    1
    18    30    31    1
    19    31    32    1
    20    32    33    1
    21    33    34    1
    22    34    35    1
    23     4     5   ar
    24     9    10   ar
    25    10    11   ar
    26    13    16    1
    27    16    17   ar
    28    17    18   ar
    29    18    19   ar
    30    19    20   ar
    31    20    21   ar
    32    21    22    1
    33    11     6   ar
    34    21    16   ar
    35     5     1   ar
    36    35    29    1
    37    14    15    1
    38    23    24    1
@<TRIPOS>MOLECULE
*****
 35 38 0 0 0
SMALL
GASTEIGER

@<TRIPOS>ATOM
      1 C         141.0577  143.2227  164.8832 C.ar    1  UNL1        0.2512
      2 N         142.3390  142.5835  165.3299 N.ar    1  UNL1       -0.1058
      3 N         142.2261  142.2948  166.7975 N.ar    1  UNL1       -0.0923
      4 C         140.8749  142.7556  167.2579 C.ar    1  UNL1        0.3086
      5 O         140.1528  143.3291  166.0748 O.2     1  UNL1       -0.4048
      6 C         140.0969  144.5823  160.7026 C.ar    1  UNL1        0.0505
      7 C         140.0667  145.5642  161.8361 C.ar    1  UNL1        0.0148
      8 C         140.3869  145.1111  163.2297 C.ar    1  UNL1        0.0060
      9 C         140.7375  143.6759  163.4897 C.ar    1  UNL1        0.0553
     10 C         140.7678  142.6940  162.3562 C.ar    1  UNL1        0.0060
     11 C         140.4475  143.1472  160.9626 C.ar    1  UNL1        0.0148
     12 O         142.3053  145.4211  158.8533 O.2     1  UNL1       -0.2697
     13 C         140.8809  145.4550  158.3844 C.2     1  UNL1        0.2517
     14 N         139.7767  145.0356  159.3090 N.am    1  UNL1       -0.2803
     15 H         138.8418  145.0578  159.0012 H       1  UNL1        0.1552
     16 C         140.5606  145.9082  156.9908 C.ar    1  UNL1        0.0811
     17 C         141.2292  145.2552  155.8176 C.ar    1  UNL1        0.0068
     18 C         140.9090  145.7084  154.4240 C.ar    1  UNL1        0.0003
     19 C         139.9201  146.8145  154.2037 C.ar    1  UNL1        0.0023
     20 C         139.2515  147.4675  155.3769 C.ar    1  UNL1        0.0298
     21 C         139.5717  147.0144  156.7705 C.ar    1  UNL1        0.1445
     22 F         138.9032  147.6673  157.9438 F       1  UNL1       -0.2040
     23 N         140.3397  142.6597  168.6560 N.pl3   1  UNL1       -0.2871
     24 H         140.3069  143.4613  169.2266 H       1  UNL1        0.1512
     25 C         139.8543  141.3425  169.1845 C.3     1  UNL1        0.0912
     26 C         140.0943  140.0859  168.4014 C.3     1  UNL1        0.0227
     27 C         139.0020  139.5149  167.5463 C.3     1  UNL1        0.0191
     28 C         138.8313  139.9875  166.1330 C.3     1  UNL1        0.0722
     29 N         139.3729  139.1698  164.9982 N.3     1  UNL1       -0.2705
     30 C         140.6774  138.4769  165.2599 C.3     1  UNL1        0.0748
     31 C         141.4697  137.5961  164.3397 C.3     1  UNL1        0.0494
     32 C         141.1531  137.1908  162.9307 C.3     1  UNL1        0.1437
     33 O         139.9662  137.5659  162.0937 O.3     1  UNL1       -0.3522
     34 C         138.8026  138.4392  162.4592 C.3     1  UNL1        0.1594
     35 C         138.5387  139.1529  163.7518 C.3     1  UNL1        0.1046
@<TRIPOS>BOND
     1    12    13    2
     2    13    14   am
     3    14     6    1
     4     6     7   ar
     5     7     8   ar
     6     8     9   ar
     7     9     1    1
     8     1     2   ar
     9     2     3   ar
    10     3     4   ar
    11     4    23    1
    12    23    25    1
    13    25    26    1
    14    26    27    1
    15    27    28    1
    16    28    29    1
    17    29    30    1
    18    30    31    1
    19    31    32    1
    20    32    33    1
    21    33    34    1
    22    34    35    1
    23     4     5   ar
    24     9    10   ar
    25    10    11   ar
    26    13    16    1
    27    16    17   ar
    28    17    18   ar
    29    18    19   ar
    30    19    20   ar
    31    20    21   ar
    32    21    22    1
    33    11     6   ar
    34    21    16   ar
    35     5     1   ar
    36    35    29    1
    37    14    15    1
    38    23    24    1
@<TRIPOS>MOLECULE
*****
 35 38 0 0 0
SMALL
GASTEIGER

@<TRIPOS>ATOM
      1 C         141.9011  138.1431  159.4257 C.ar    1  UNL1        0.2512
      2 N         140.9261  138.6375  158.3986 N.ar    1  UNL1       -0.1058
      3 N         141.4992  138.3552  157.0415 N.ar    1  UNL1       -0.0923
      4 C         142.8286  137.6863  157.2298 C.ar    1  UNL1        0.3086
      5 O         143.0770  137.5552  158.7033 O.2     1  UNL1       -0.4048
      6 C         141.3886  138.3815  163.8900 C.ar    1  UNL1        0.0505
      7 C         142.7629  138.4152  163.2900 C.ar    1  UNL1        0.0148
      8 C         142.9338  138.3358  161.8019 C.ar    1  UNL1        0.0060
      9 C         141.7303  138.2225  160.9138 C.ar    1  UNL1        0.0553
     10 C         140.3559  138.1888  161.5138 C.ar    1  UNL1        0.0060
     11 C         140.1851  138.2682  163.0019 C.ar    1  UNL1        0.0148
     12 O         140.8446  141.0258  165.1983 O.2     1  UNL1       -0.2697
     13 C         140.9458  139.7831  166.0323 C.2     1  UNL1        0.2517
     14 N         141.2178  138.4609  165.3782 N.am    1  UNL1       -0.2803
     15 H         141.2842  137.6453  165.9256 H       1  UNL1        0.1552
     16 C         140.7750  139.8625  167.5204 C.ar    1  UNL1        0.0811
     17 C         139.4531  140.2664  168.1031 C.ar    1  UNL1        0.0068
     18 C         139.2822  140.3459  169.5912 C.ar    1  UNL1        0.0003
     19 C         140.4333  140.0214  170.4967 C.ar    1  UNL1        0.0023
     20 C         141.7551  139.6175  169.9140 C.ar    1  UNL1        0.0298
     21 C         141.9261  139.5381  168.4259 C.ar    1  UNL1        0.1445
     22 F         143.2479  139.1342  167.8432 F       1  UNL1       -0.2040
     23 N         143.7482  137.2289  156.1366 N.pl3   1  UNL1       -0.2871
     24 H         144.4936  137.8035  155.8476 H       1  UNL1        0.1512
     25 C         143.5322  135.8958  155.4837 C.3     1  UNL1        0.0912
     26 C         142.3048  135.0947  155.8026 C.3     1  UNL1        0.0227
     27 C         141.9587  133.8916  154.9762 C.3     1  UNL1        0.0191
     28 C         143.0042  132.8564  154.6841 C.3     1  UNL1        0.0722
     29 N         143.4523  131.9173  155.7646 N.3     1  UNL1       -0.2705
     30 C         142.7526  130.5911  155.8055 C.3     1  UNL1        0.0748
     31 C         142.9686  129.4486  156.7532 C.3     1  UNL1        0.0494
     32 C         143.9375  129.3502  157.8939 C.3     1  UNL1        0.1437
     33 O         144.9299  130.3698  158.3688 O.3     1  UNL1       -0.3522
     34 C         145.1984  131.7399  157.8201 C.3     1  UNL1        0.1594
     35 C         144.5407  132.4285  156.6611 C.3     1  UNL1        0.1046
@<TRIPOS>BOND
     1    12    13    2
     2    13    14   am
     3    14     6    1
     4     6     7   ar
     5     7     8   ar
     6     8     9   ar
     7     9     1    1
     8     1     2   ar
     9     2     3   ar
    10     3     4   ar
    11     4    23    1
    12    23    25    1
    13    25    26    1
    14    26    27    1
    15    27    28    1
    16    28    29    1
    17    29    30    1
    18    30    31    1
    19    31    32    1
    20    32    33    1
    21    33    34    1
    22    34    35    1
    23     4     5   ar
    24     9    10   ar
    25    10    11   ar
    26    13    16    1
    27    16    17   ar
    28    17    18   ar
    29    18    19   ar
    30    19    20   ar
    31    20    21   ar
    32    21    22    1
    33    11     6   ar
    34    21    16   ar
    35     5     1   ar
    36    35    29    1
    37    14    15    1
    38    23    24    1
@<TRIPOS>MOLECULE
*****
 35 38 0 0 0
SMALL
GASTEIGER

@<TRIPOS>ATOM
      1 C         144.0981  141.3339  159.4102 C.ar    1  UNL1        0.2512
      2 N         144.2145  142.5577  158.5507 N.ar    1  UNL1       -0.1058
      3 N         144.6892  142.1281  157.1943 N.ar    1  UNL1       -0.0923
      4 C         144.8662  140.6387  157.2154 C.ar    1  UNL1        0.3086
      5 O         144.5009  140.1478  158.5849 O.2     1  UNL1       -0.4048
      6 C         142.7731  141.2374  163.7096 C.ar    1  UNL1        0.0505
      7 C         144.1698  140.8288  163.3459 C.ar    1  UNL1        0.0148
      8 C         144.6115  140.8610  161.9128 C.ar    1  UNL1        0.0060
      9 C         143.6565  141.3017  160.8433 C.ar    1  UNL1        0.0553
     10 C         142.2597  141.7103  161.2070 C.ar    1  UNL1        0.0060
     11 C         141.8181  141.6781  162.6402 C.ar    1  UNL1        0.0148
     12 O         142.1633  138.6148  165.0328 O.2     1  UNL1       -0.2697
     13 C         142.0265  139.8939  165.8043 C.2     1  UNL1        0.2517
     14 N         142.3314  141.2052  165.1428 N.am    1  UNL1       -0.2803
     15 H         142.2416  142.0447  165.6492 H       1  UNL1        0.1552
     16 C         141.5849  139.8617  167.2374 C.ar    1  UNL1        0.0811
     17 C         142.5539  139.4667  168.3122 C.ar    1  UNL1        0.0068
     18 C         142.1124  139.4345  169.7453 C.ar    1  UNL1        0.0003
     19 C         140.7018  139.7974  170.1038 C.ar    1  UNL1        0.0023
     20 C         139.7328  140.1924  169.0291 C.ar    1  UNL1        0.0298
     21 C         140.1743  140.2246  167.5959 C.ar    1  UNL1        0.1445
     22 F         139.2053  140.6197  166.5212 F       1  UNL1       -0.2040
     23 N         145.3275  139.7892  156.0683 N.pl3   1  UNL1       -0.2871
     24 H         146.2791  139.7771  155.8162 H       1  UNL1        0.1512
     25 C         144.3388  138.9581  155.3055 C.3     1  UNL1        0.0912
     26 C         144.2184  137.4897  155.5868 C.3     1  UNL1        0.0227
     27 C         142.9907  136.9536  156.2619 C.3     1  UNL1        0.0191
     28 C         141.9356  137.8969  156.7587 C.3     1  UNL1        0.0722
     29 N         141.6679  138.0152  158.2299 N.3     1  UNL1       -0.2705
     30 C         142.8005  137.6217  159.1312 C.3     1  UNL1        0.0748
     31 C         142.8480  137.6271  160.6305 C.3     1  UNL1        0.0494
     32 C         141.7745  138.0274  161.5986 C.3     1  UNL1        0.1437
     33 O         140.3885  138.5212  161.3068 O.3     1  UNL1       -0.3522
     34 C         139.7336  138.7366  159.9746 C.3     1  UNL1        0.1594
     35 C         140.3031  138.5114  158.6053 C.3     1  UNL1        0.1046
@<TRIPOS>BOND
     1    12    13    2
     2    13    14   am
     3    14     6    1
     4     6     7   ar
     5     7     8   ar
     6     8     9   ar
     7     9     1    1
     8     1     2   ar
     9     2     3   ar
    10     3     4   ar
    11     4    23    1
    12    23    25    1
    13    25    26    1
    14    26    27    1
    15    27    28    1
    16    28    29    1
    17    29    30    1
    18    30    31    1
    19    31    32    1
    20    32    33    1
    21    33    34    1
    22    34    35    1
    23     4     5   ar
    24     9    10   ar
    25    10    11   ar
    26    13    16    1
    27    16    17   ar
    28    17    18   ar
    29    18    19   ar
    30    19    20   ar
    31    20    21   ar
    32    21    22    1
    33    11     6   ar
    34    21    16   ar
    35     5     1   ar
    36    35    29    1
    37    14    15    1
    38    23    24    1
