@<TRIPOS>MOLECULE
*****
 41 46 0 0 0
SMALL
GASTEIGER

@<TRIPOS>ATOM
      1 N         139.8442  145.5263  156.0943 N.3     1  UNL1       -0.2676
      2 C         139.1056  144.2570  155.7884 C.3     1  UNL1        0.0746
      3 C         138.8164  143.2749  156.8846 C.3     1  UNL1        0.0449
      4 C         139.2657  143.5620  158.2867 C.3     1  UNL1        0.1391
      5 C         140.0043  144.8312  158.5925 C.3     1  UNL1        0.0449
      6 C         140.2935  145.8133  157.4963 C.3     1  UNL1        0.0746
      7 C         139.6505  143.7116  159.7287 C.2     1  UNL1        0.2529
      8 O         140.3922  144.8697  160.3278 O.2     1  UNL1       -0.2724
      9 N         139.1635  142.4998  160.4667 N.am    1  UNL1       -0.1907
     10 C         138.4777  141.6012  159.4806 C.2     1  UNL1        0.3219
     11 O         137.8406  140.2785  159.7878 O.2     1  UNL1       -0.2512
     12 N         138.5408  142.2577  158.1333 N.am    1  UNL1       -0.2223
     13 C         139.3326  142.2333  161.9331 C.ar    1  UNL1        0.0622
     14 C         138.1341  142.2123  162.8346 C.ar    1  UNL1        0.0154
     15 C         138.3032  141.9459  164.3010 C.ar    1  UNL1        0.0013
     16 C         139.6709  141.7005  164.8659 C.ar    1  UNL1        0.0001
     17 C         140.8695  141.7215  163.9643 C.ar    1  UNL1        0.0013
     18 C         140.7004  141.9879  162.4979 C.ar    1  UNL1        0.0154
     19 C         139.8400  141.4340  166.3323 C.ar    1  UNL1        0.0000
     20 C         140.5087  142.4524  167.2074 C.ar    1  UNL1        0.0000
     21 C         140.6778  142.1860  168.6738 C.ar    1  UNL1        0.0011
     22 C         140.1782  140.9011  169.2652 C.ar    1  UNL1        0.0140
     23 C         139.5095  139.8827  168.3901 C.ar    1  UNL1        0.0011
     24 C         139.3404  140.1492  166.9236 C.ar    1  UNL1        0.0000
     25 C         140.3473  140.6347  170.7316 C.2     1  UNL1        0.0729
     26 O         141.2644  141.4950  171.5493 O.co2   1  UNL1       -0.5446
     27 O         139.5993  139.5078  171.3803 O.co2   1  UNL1       -0.5446
     28 C         137.9780  141.7067  156.8568 C.ar    1  UNL1        0.1422
     29 C         138.8029  140.7831  156.0104 C.ar    1  UNL1        0.0554
     30 C         138.2400  140.2321  154.7339 C.ar    1  UNL1        0.1036
     31 N         136.8521  140.6047  154.3037 N.ar    1  UNL1       -0.2223
     32 C         136.0271  141.5283  155.1501 C.ar    1  UNL1        0.2001
     33 N         136.5901  142.0792  156.4266 N.ar    1  UNL1       -0.2086
     34 C         140.1334  146.5085  154.9980 C.3     1  UNL1        0.1183
     35 C         140.7785  148.4924  152.8421 C.3     1  UNL1        0.0323
     36 C         139.9755  148.9167  154.0359 C.ar    1  UNL1       -0.0069
     37 C         139.4950  150.3329  154.1518 C.ar    1  UNL1       -0.0015
     38 C         138.6919  150.7572  155.3456 C.ar    1  UNL1        0.0203
     39 C         138.3694  149.7652  156.4235 C.ar    1  UNL1        0.0985
     40 N         138.8499  148.3489  156.3077 N.ar    1  UNL1       -0.2471
     41 C         139.6529  147.9247  155.1139 C.ar    1  UNL1        0.0712
@<TRIPOS>UNITY_ATOM_ATTR
26 1
charge -1
@<TRIPOS>BOND
     1    35    36    1
     2    36    37   ar
     3    37    38   ar
     4    38    39   ar
     5    39    40   ar
     6    40    41   ar
     7    41    34    1
     8    34     1    1
     9     1     2    1
    10     2     3    1
    11     3     4    1
    12     4     5    1
    13     5     6    1
    14     4     7    1
    15     7     8    2
    16     7     9   am
    17     9    13    1
    18    13    14   ar
    19    14    15   ar
    20    15    16   ar
    21    16    19    1
    22    19    20   ar
    23    20    21   ar
    24    21    22   ar
    25    22    25    1
    26    25    26   ar
    27    25    27   ar
    28    22    23   ar
    29    23    24   ar
    30    16    17   ar
    31    17    18   ar
    32     9    10   am
    33    10    11    2
    34    10    12   am
    35    12    28    1
    36    28    29   ar
    37    29    30   ar
    38    30    31   ar
    39    31    32   ar
    40    32    33   ar
    41    41    36   ar
    42     6     1    1
    43    18    13   ar
    44    33    28   ar
    45    12     4    1
    46    24    19   ar
@<TRIPOS>MOLECULE
*****
 41 46 0 0 0
SMALL
GASTEIGER

@<TRIPOS>ATOM
      1 N         142.6340  137.0261  156.8831 N.3     1  UNL1       -0.2676
      2 C         141.5975  137.9965  156.3995 C.3     1  UNL1        0.0746
      3 C         140.9002  138.8974  157.3753 C.3     1  UNL1        0.0449
      4 C         141.2395  138.8278  158.8348 C.3     1  UNL1        0.1391
      5 C         142.2760  137.8574  159.3184 C.3     1  UNL1        0.0449
      6 C         142.9732  136.9566  158.3426 C.3     1  UNL1        0.0746
      7 C         141.4723  138.8716  160.3160 C.2     1  UNL1        0.2529
      8 O         142.4431  138.0221  161.0814 O.2     1  UNL1       -0.2724
      9 N         140.5636  139.9139  160.8975 N.am    1  UNL1       -0.1907
     10 C         139.7693  140.5144  159.7755 C.2     1  UNL1        0.3219
     11 O         138.7384  141.5961  159.9056 O.2     1  UNL1       -0.2512
     12 N         140.1870  139.8431  158.5008 N.am    1  UNL1       -0.2223
     13 C         140.4664  140.2898  162.3463 C.ar    1  UNL1        0.0622
     14 C         141.6344  140.9315  163.0347 C.ar    1  UNL1        0.0154
     15 C         141.5372  141.3074  164.4835 C.ar    1  UNL1        0.0013
     16 C         140.2720  141.0416  165.2441 C.ar    1  UNL1        0.0001
     17 C         139.1039  140.3998  164.5557 C.ar    1  UNL1        0.0013
     18 C         139.2011  140.0239  163.1068 C.ar    1  UNL1        0.0154
     19 C         140.1747  141.4175  166.6929 C.ar    1  UNL1        0.0000
     20 C         139.7734  140.3897  167.7091 C.ar    1  UNL1        0.0000
     21 C         139.6762  140.7655  169.1580 C.ar    1  UNL1        0.0011
     22 C         139.9803  142.1693  169.5907 C.ar    1  UNL1        0.0140
     23 C         140.3816  143.1971  168.5745 C.ar    1  UNL1        0.0011
     24 C         140.4788  142.8211  167.1256 C.ar    1  UNL1        0.0000
     25 C         139.8831  142.5452  171.0396 C.2     1  UNL1        0.0729
     26 O         140.7551  141.8629  172.0515 O.co2   1  UNL1       -0.5446
     27 O         138.9138  143.6033  171.4765 O.co2   1  UNL1       -0.5446
     28 C         139.6471  140.1358  157.1323 C.ar    1  UNL1        0.1422
     29 C         140.2578  141.2258  156.3023 C.ar    1  UNL1        0.0554
     30 C         139.7178  141.5183  154.9338 C.ar    1  UNL1        0.1036
     31 N         138.5671  140.7209  154.3952 N.ar    1  UNL1       -0.2223
     32 C         137.9564  139.6309  155.2252 C.ar    1  UNL1        0.2001
     33 N         138.4963  139.3384  156.5937 N.ar    1  UNL1       -0.2086
     34 C         143.3313  136.1252  155.9073 C.3     1  UNL1        0.1183
     35 C         141.8055  135.5207  153.3960 C.3     1  UNL1        0.0323
     36 C         142.0478  134.4379  154.4054 C.ar    1  UNL1       -0.0069
     37 C         141.5272  133.0529  154.1591 C.ar    1  UNL1       -0.0015
     38 C         141.7694  131.9701  155.1685 C.ar    1  UNL1        0.0203
     39 C         142.5323  132.2724  156.4242 C.ar    1  UNL1        0.0985
     40 N         143.0529  133.6574  156.6705 N.ar    1  UNL1       -0.2471
     41 C         142.8107  134.7402  155.6611 C.ar    1  UNL1        0.0712
@<TRIPOS>UNITY_ATOM_ATTR
26 1
charge -1
@<TRIPOS>BOND
     1    35    36    1
     2    36    37   ar
     3    37    38   ar
     4    38    39   ar
     5    39    40   ar
     6    40    41   ar
     7    41    34    1
     8    34     1    1
     9     1     2    1
    10     2     3    1
    11     3     4    1
    12     4     5    1
    13     5     6    1
    14     4     7    1
    15     7     8    2
    16     7     9   am
    17     9    13    1
    18    13    14   ar
    19    14    15   ar
    20    15    16   ar
    21    16    19    1
    22    19    20   ar
    23    20    21   ar
    24    21    22   ar
    25    22    25    1
    26    25    26   ar
    27    25    27   ar
    28    22    23   ar
    29    23    24   ar
    30    16    17   ar
    31    17    18   ar
    32     9    10   am
    33    10    11    2
    34    10    12   am
    35    12    28    1
    36    28    29   ar
    37    29    30   ar
    38    30    31   ar
    39    31    32   ar
    40    32    33   ar
    41    41    36   ar
    42     6     1    1
    43    18    13   ar
    44    33    28   ar
    45    12     4    1
    46    24    19   ar
@<TRIPOS>MOLECULE
*****
 41 46 0 0 0
SMALL
GASTEIGER

@<TRIPOS>ATOM
      1 N         143.4117  137.7314  156.3210 N.3     1  UNL1       -0.2676
      2 C         143.9207  139.1167  156.0532 C.3     1  UNL1        0.0746
      3 C         143.9331  140.1368  157.1529 C.3     1  UNL1        0.0449
      4 C         143.4365  139.7715  158.5203 C.3     1  UNL1        0.1391
      5 C         142.9274  138.3862  158.7881 C.3     1  UNL1        0.0449
      6 C         142.9150  137.3662  157.6885 C.3     1  UNL1        0.0746
      7 C         142.9740  139.5535  159.9305 C.2     1  UNL1        0.2529
      8 O         142.4180  138.2770  160.4886 O.2     1  UNL1       -0.2724
      9 N         143.1653  140.8360  160.6847 N.am    1  UNL1       -0.1907
     10 C         143.7459  141.8467  159.7405 C.2     1  UNL1        0.3219
     11 O         144.0973  143.2660  160.0752 O.2     1  UNL1       -0.2512
     12 N         143.9136  141.1889  158.4029 N.am    1  UNL1       -0.2223
     13 C         142.8340  141.0672  162.1292 C.ar    1  UNL1        0.0622
     14 C         141.4268  141.3933  162.5331 C.ar    1  UNL1        0.0154
     15 C         141.0955  141.6245  163.9777 C.ar    1  UNL1        0.0013
     16 C         142.1715  141.5296  165.0184 C.ar    1  UNL1        0.0001
     17 C         143.5789  141.2035  164.6145 C.ar    1  UNL1        0.0013
     18 C         143.9101  140.9723  163.1699 C.ar    1  UNL1        0.0154
     19 C         141.8403  141.7608  166.4629 C.ar    1  UNL1        0.0000
     20 C         142.9180  142.1673  167.4238 C.ar    1  UNL1        0.0000
     21 C         142.5868  142.3985  168.8684 C.ar    1  UNL1        0.0011
     22 C         141.1777  142.2232  169.3521 C.ar    1  UNL1        0.0140
     23 C         140.1000  141.8166  168.3913 C.ar    1  UNL1        0.0011
     24 C         140.4313  141.5854  166.9466 C.ar    1  UNL1        0.0000
     25 C         140.8464  142.4543  170.7967 C.2     1  UNL1        0.0729
     26 O         139.5170  143.0352  171.1776 O.co2   1  UNL1       -0.5446
     27 O         141.8447  142.1046  171.8604 O.co2   1  UNL1       -0.5446
     28 C         144.4619  141.8348  157.1652 C.ar    1  UNL1        0.1422
     29 C         143.5398  142.5420  156.2168 C.ar    1  UNL1        0.0554
     30 C         144.0883  143.1880  154.9791 C.ar    1  UNL1        0.1036
     31 N         145.5589  143.1267  154.6897 N.ar    1  UNL1       -0.2223
     32 C         146.4810  142.4195  155.6382 C.ar    1  UNL1        0.2001
     33 N         145.9325  141.7736  156.8759 N.ar    1  UNL1       -0.2086
     34 C         143.3993  136.7113  155.2213 C.3     1  UNL1        0.1183
     35 C         140.7547  135.6117  154.3283 C.3     1  UNL1        0.0323
     36 C         141.7163  134.7372  155.0770 C.ar    1  UNL1       -0.0069
     37 C         141.3556  133.3130  155.3793 C.ar    1  UNL1       -0.0015
     38 C         142.3172  132.4385  156.1280 C.ar    1  UNL1        0.0203
     39 C         143.6394  132.9882  156.5746 C.ar    1  UNL1        0.0985
     40 N         144.0002  134.4126  156.2723 N.ar    1  UNL1       -0.2471
     41 C         143.0386  135.2871  155.5236 C.ar    1  UNL1        0.0712
@<TRIPOS>UNITY_ATOM_ATTR
26 1
charge -1
@<TRIPOS>BOND
     1    35    36    1
     2    36    37   ar
     3    37    38   ar
     4    38    39   ar
     5    39    40   ar
     6    40    41   ar
     7    41    34    1
     8    34     1    1
     9     1     2    1
    10     2     3    1
    11     3     4    1
    12     4     5    1
    13     5     6    1
    14     4     7    1
    15     7     8    2
    16     7     9   am
    17     9    13    1
    18    13    14   ar
    19    14    15   ar
    20    15    16   ar
    21    16    19    1
    22    19    20   ar
    23    20    21   ar
    24    21    22   ar
    25    22    25    1
    26    25    26   ar
    27    25    27   ar
    28    22    23   ar
    29    23    24   ar
    30    16    17   ar
    31    17    18   ar
    32     9    10   am
    33    10    11    2
    34    10    12   am
    35    12    28    1
    36    28    29   ar
    37    29    30   ar
    38    30    31   ar
    39    31    32   ar
    40    32    33   ar
    41    41    36   ar
    42     6     1    1
    43    18    13   ar
    44    33    28   ar
    45    12     4    1
    46    24    19   ar
@<TRIPOS>MOLECULE
*****
 41 46 0 0 0
SMALL
GASTEIGER

@<TRIPOS>ATOM
      1 N         140.8272  138.2809  156.1482 N.3     1  UNL1       -0.2676
      2 C         139.7099  139.2760  156.0422 C.3     1  UNL1        0.0746
      3 C         139.3459  140.1238  157.2249 C.3     1  UNL1        0.0449
      4 C         140.0993  139.9765  158.5136 C.3     1  UNL1        0.1391
      5 C         141.2167  138.9814  158.6195 C.3     1  UNL1        0.0449
      6 C         141.5806  138.1336  157.4369 C.3     1  UNL1        0.0746
      7 C         140.7592  139.9412  159.8602 C.2     1  UNL1        0.2529
      8 O         141.8989  139.0520  160.2605 O.2     1  UNL1       -0.2724
      9 N         140.0793  140.9514  160.7362 N.am    1  UNL1       -0.1907
     10 C         138.9991  141.6110  159.9310 C.2     1  UNL1        0.3219
     11 O         138.0699  142.6845  160.4144 O.2     1  UNL1       -0.2512
     12 N         139.0115  141.0085  158.5573 N.am    1  UNL1       -0.2223
     13 C         140.4197  141.2496  162.1663 C.ar    1  UNL1        0.0622
     14 C         141.1766  142.4974  162.5126 C.ar    1  UNL1        0.0154
     15 C         141.5170  142.7956  163.9426 C.ar    1  UNL1        0.0013
     16 C         141.1005  141.8460  165.0264 C.ar    1  UNL1        0.0001
     17 C         140.3436  140.5982  164.6802 C.ar    1  UNL1        0.0013
     18 C         140.0032  140.2999  163.2501 C.ar    1  UNL1        0.0154
     19 C         141.4409  142.1442  166.4565 C.ar    1  UNL1        0.0000
     20 C         140.3915  142.6894  167.3793 C.ar    1  UNL1        0.0000
     21 C         140.7319  142.9876  168.8094 C.ar    1  UNL1        0.0011
     22 C         142.1218  142.7407  169.3168 C.ar    1  UNL1        0.0140
     23 C         143.1713  142.1955  168.3940 C.ar    1  UNL1        0.0011
     24 C         142.8308  141.8973  166.9638 C.ar    1  UNL1        0.0000
     25 C         142.4622  143.0389  170.7469 C.2     1  UNL1        0.0729
     26 O         141.7668  142.3018  171.8527 O.co2   1  UNL1       -0.5446
     27 O         143.4981  144.0742  171.0711 O.co2   1  UNL1       -0.5446
     28 C         138.0968  141.3737  157.4261 C.ar    1  UNL1        0.1422
     29 C         138.4553  142.5031  156.5063 C.ar    1  UNL1        0.0554
     30 C         137.5405  142.8683  155.3751 C.ar    1  UNL1        0.1036
     31 N         136.2672  142.1041  155.1635 N.ar    1  UNL1       -0.2223
     32 C         135.9087  140.9747  156.0832 C.ar    1  UNL1        0.2001
     33 N         136.8235  140.6095  157.2145 N.ar    1  UNL1       -0.2086
     34 C         141.1912  137.4331  154.9655 C.3     1  UNL1        0.1183
     35 C         144.1614  137.1734  155.2984 C.3     1  UNL1        0.0323
     36 C         143.2924  135.9514  155.3394 C.ar    1  UNL1       -0.0069
     37 C         143.9085  134.5997  155.5468 C.ar    1  UNL1       -0.0015
     38 C         143.0396  133.3777  155.5878 C.ar    1  UNL1        0.0203
     39 C         141.5545  133.5075  155.4213 C.ar    1  UNL1        0.0985
     40 N         140.9384  134.8593  155.2139 N.ar    1  UNL1       -0.2471
     41 C         141.8073  136.0813  155.1729 C.ar    1  UNL1        0.0712
@<TRIPOS>UNITY_ATOM_ATTR
26 1
charge -1
@<TRIPOS>BOND
     1    35    36    1
     2    36    37   ar
     3    37    38   ar
     4    38    39   ar
     5    39    40   ar
     6    40    41   ar
     7    41    34    1
     8    34     1    1
     9     1     2    1
    10     2     3    1
    11     3     4    1
    12     4     5    1
    13     5     6    1
    14     4     7    1
    15     7     8    2
    16     7     9   am
    17     9    13    1
    18    13    14   ar
    19    14    15   ar
    20    15    16   ar
    21    16    19    1
    22    19    20   ar
    23    20    21   ar
    24    21    22   ar
    25    22    25    1
    26    25    26   ar
    27    25    27   ar
    28    22    23   ar
    29    23    24   ar
    30    16    17   ar
    31    17    18   ar
    32     9    10   am
    33    10    11    2
    34    10    12   am
    35    12    28    1
    36    28    29   ar
    37    29    30   ar
    38    30    31   ar
    39    31    32   ar
    40    32    33   ar
    41    41    36   ar
    42     6     1    1
    43    18    13   ar
    44    33    28   ar
    45    12     4    1
    46    24    19   ar
@<TRIPOS>MOLECULE
*****
 41 46 0 0 0
SMALL
GASTEIGER

@<TRIPOS>ATOM
      1 N         144.7654  140.2169  156.1896 N.3     1  UNL1       -0.2676
      2 C         143.6920  139.1748  156.0806 C.3     1  UNL1        0.0746
      3 C         142.8150  138.8754  157.2601 C.3     1  UNL1        0.0449
      4 C         143.0115  139.6179  158.5485 C.3     1  UNL1        0.1391
      5 C         144.0849  140.6599  158.6575 C.3     1  UNL1        0.0449
      6 C         144.9619  140.9594  157.4780 C.3     1  UNL1        0.0746
      7 C         143.0892  140.2754  159.8945 C.2     1  UNL1        0.2529
      8 O         144.0575  141.3478  160.2973 O.2     1  UNL1       -0.2724
      9 N         142.0285  139.6721  160.7670 N.am    1  UNL1       -0.1907
     10 C         141.2953  138.6418  159.9602 C.2     1  UNL1        0.3219
     11 O         140.1549  137.7939  160.4401 O.2     1  UNL1       -0.2512
     12 N         141.9028  138.6083  158.5891 N.am    1  UNL1       -0.2223
     13 C         141.7499  140.0354  162.1954 C.ar    1  UNL1        0.0622
     14 C         141.9541  139.0206  163.2809 C.ar    1  UNL1        0.0154
     15 C         141.6756  139.3839  164.7093 C.ar    1  UNL1        0.0013
     16 C         141.1929  140.7620  165.0523 C.ar    1  UNL1        0.0001
     17 C         140.9887  141.7769  163.9667 C.ar    1  UNL1        0.0013
     18 C         141.2672  141.4136  162.5383 C.ar    1  UNL1        0.0154
     19 C         140.9143  141.1253  166.4807 C.ar    1  UNL1        0.0000
     20 C         140.8460  142.5673  166.8882 C.ar    1  UNL1        0.0000
     21 C         140.5675  142.9306  168.3166 C.ar    1  UNL1        0.0011
     22 C         140.3572  141.8519  169.3376 C.ar    1  UNL1        0.0140
     23 C         140.4255  140.4099  168.9301 C.ar    1  UNL1        0.0011
     24 C         140.7040  140.0466  167.5016 C.ar    1  UNL1        0.0000
     25 C         140.0787  142.2151  170.7660 C.2     1  UNL1        0.0729
     26 O         139.2419  143.4187  171.0843 O.co2   1  UNL1       -0.5446
     27 O         140.6369  141.3749  171.8762 O.co2   1  UNL1       -0.5446
     28 C         141.4766  137.7210  157.4573 C.ar    1  UNL1        0.1422
     29 C         140.2837  138.0876  156.6251 C.ar    1  UNL1        0.0554
     30 C         139.8575  137.2002  155.4933 C.ar    1  UNL1        0.1036
     31 N         140.6242  135.9462  155.1937 N.ar    1  UNL1       -0.2223
     32 C         141.8170  135.5796  156.0260 C.ar    1  UNL1        0.2001
     33 N         142.2432  136.4669  157.1577 N.ar    1  UNL1       -0.2086
     34 C         145.6425  140.5164  155.0100 C.3     1  UNL1        0.1183
     35 C         148.2405  141.9651  155.3993 C.3     1  UNL1        0.0323
     36 C         147.0925  142.6528  154.7217 C.ar    1  UNL1       -0.0069
     37 C         147.2435  144.0649  154.2388 C.ar    1  UNL1       -0.0015
     38 C         146.0955  144.7526  153.5612 C.ar    1  UNL1        0.0203
     39 C         144.7965  144.0283  153.3666 C.ar    1  UNL1        0.0985
     40 N         144.6455  142.6162  153.8495 N.ar    1  UNL1       -0.2471
     41 C         145.7935  141.9284  154.5271 C.ar    1  UNL1        0.0712
@<TRIPOS>UNITY_ATOM_ATTR
26 1
charge -1
@<TRIPOS>BOND
     1    35    36    1
     2    36    37   ar
     3    37    38   ar
     4    38    39   ar
     5    39    40   ar
     6    40    41   ar
     7    41    34    1
     8    34     1    1
     9     1     2    1
    10     2     3    1
    11     3     4    1
    12     4     5    1
    13     5     6    1
    14     4     7    1
    15     7     8    2
    16     7     9   am
    17     9    13    1
    18    13    14   ar
    19    14    15   ar
    20    15    16   ar
    21    16    19    1
    22    19    20   ar
    23    20    21   ar
    24    21    22   ar
    25    22    25    1
    26    25    26   ar
    27    25    27   ar
    28    22    23   ar
    29    23    24   ar
    30    16    17   ar
    31    17    18   ar
    32     9    10   am
    33    10    11    2
    34    10    12   am
    35    12    28    1
    36    28    29   ar
    37    29    30   ar
    38    30    31   ar
    39    31    32   ar
    40    32    33   ar
    41    41    36   ar
    42     6     1    1
    43    18    13   ar
    44    33    28   ar
    45    12     4    1
    46    24    19   ar
@<TRIPOS>MOLECULE
*****
 41 46 0 0 0
SMALL
GASTEIGER

@<TRIPOS>ATOM
      1 N         145.2883  142.1529  156.0954 N.3     1  UNL1       -0.2676
      2 C         144.5769  140.8698  155.7834 C.3     1  UNL1        0.0746
      3 C         143.8599  140.1262  156.8710 C.3     1  UNL1        0.0449
      4 C         143.8544  140.6657  158.2707 C.3     1  UNL1        0.1391
      5 C         144.5659  141.9488  158.5827 C.3     1  UNL1        0.0449
      6 C         145.2828  142.6924  157.4951 C.3     1  UNL1        0.0746
      7 C         143.7627  141.0799  159.7094 C.2     1  UNL1        0.2529
      8 O         144.3719  142.3105  160.3132 O.2     1  UNL1       -0.2724
      9 N         142.9548  140.0475  160.4385 N.am    1  UNL1       -0.1907
     10 C         142.5472  138.9952  159.4502 C.2     1  UNL1        0.3219
     11 O         141.7276  137.7751  159.7493 O.2     1  UNL1       -0.2512
     12 N         143.1031  139.3772  158.1105 N.am    1  UNL1       -0.2223
     13 C         142.6143  140.0644  161.8992 C.ar    1  UNL1        0.0622
     14 C         141.3120  140.6494  162.3590 C.ar    1  UNL1        0.0154
     15 C         140.9715  140.6663  163.8198 C.ar    1  UNL1        0.0013
     16 C         141.9334  140.0982  164.8207 C.ar    1  UNL1        0.0001
     17 C         143.2358  139.5132  164.3609 C.ar    1  UNL1        0.0013
     18 C         143.5763  139.4963  162.9001 C.ar    1  UNL1        0.0154
     19 C         141.5929  140.1151  166.2814 C.ar    1  UNL1        0.0000
     20 C         140.1576  140.1333  166.7168 C.ar    1  UNL1        0.0000
     21 C         139.8171  140.1502  168.1776 C.ar    1  UNL1        0.0011
     22 C         140.9120  140.1489  169.2030 C.ar    1  UNL1        0.0140
     23 C         142.3473  140.1307  168.7676 C.ar    1  UNL1        0.0011
     24 C         142.6877  140.1138  167.3067 C.ar    1  UNL1        0.0000
     25 C         140.5715  140.1658  170.6637 C.2     1  UNL1        0.0729
     26 O         139.3685  139.4212  171.1620 O.co2   1  UNL1       -0.5446
     27 O         141.4340  140.9273  171.6261 O.co2   1  UNL1       -0.5446
     28 C         142.9371  138.6063  156.8346 C.ar    1  UNL1        0.1422
     29 C         141.7763  138.8949  155.9295 C.ar    1  UNL1        0.0554
     30 C         141.6103  138.1239  154.6536 C.ar    1  UNL1        0.1036
     31 N         142.6051  137.0643  154.2827 N.ar    1  UNL1       -0.2223
     32 C         143.7659  136.7756  155.1878 C.ar    1  UNL1        0.2001
     33 N         143.9319  137.5466  156.4637 N.ar    1  UNL1       -0.2086
     34 C         146.0054  142.8966  155.0078 C.3     1  UNL1        0.1183
     35 C         147.3361  144.0590  152.5833 C.3     1  UNL1        0.0323
     36 C         148.1246  143.2130  153.5385 C.ar    1  UNL1       -0.0069
     37 C         149.5785  142.9481  153.2815 C.ar    1  UNL1       -0.0015
     38 C         150.3670  142.1021  154.2367 C.ar    1  UNL1        0.0203
     39 C         149.7017  141.5209  155.4490 C.ar    1  UNL1        0.0985
     40 N         148.2478  141.7858  155.7060 N.ar    1  UNL1       -0.2471
     41 C         147.4592  142.6318  154.7508 C.ar    1  UNL1        0.0712
@<TRIPOS>UNITY_ATOM_ATTR
26 1
charge -1
@<TRIPOS>BOND
     1    35    36    1
     2    36    37   ar
     3    37    38   ar
     4    38    39   ar
     5    39    40   ar
     6    40    41   ar
     7    41    34    1
     8    34     1    1
     9     1     2    1
    10     2     3    1
    11     3     4    1
    12     4     5    1
    13     5     6    1
    14     4     7    1
    15     7     8    2
    16     7     9   am
    17     9    13    1
    18    13    14   ar
    19    14    15   ar
    20    15    16   ar
    21    16    19    1
    22    19    20   ar
    23    20    21   ar
    24    21    22   ar
    25    22    25    1
    26    25    26   ar
    27    25    27   ar
    28    22    23   ar
    29    23    24   ar
    30    16    17   ar
    31    17    18   ar
    32     9    10   am
    33    10    11    2
    34    10    12   am
    35    12    28    1
    36    28    29   ar
    37    29    30   ar
    38    30    31   ar
    39    31    32   ar
    40    32    33   ar
    41    41    36   ar
    42     6     1    1
    43    18    13   ar
    44    33    28   ar
    45    12     4    1
    46    24    19   ar
@<TRIPOS>MOLECULE
*****
 41 46 0 0 0
SMALL
GASTEIGER

@<TRIPOS>ATOM
      1 N         138.7343  139.1299  160.7277 N.3     1  UNL1       -0.2676
      2 C         139.1993  138.5642  159.4186 C.3     1  UNL1        0.0746
      3 C         139.4286  139.4734  158.2479 C.3     1  UNL1        0.0449
      4 C         139.1929  140.9483  158.3862 C.3     1  UNL1        0.1391
      5 C         138.7279  141.5140  159.6953 C.3     1  UNL1        0.0449
      6 C         138.4986  140.6048  160.8660 C.3     1  UNL1        0.0746
      7 C         139.0004  142.4359  158.3741 C.2     1  UNL1        0.2529
      8 O         138.5448  143.2754  159.5306 O.2     1  UNL1       -0.2724
      9 N         139.3435  142.9366  157.0023 N.am    1  UNL1       -0.1907
     10 C         139.7481  141.7584  156.1666 C.2     1  UNL1        0.3219
     11 O         140.1714  141.8014  154.7283 O.2     1  UNL1       -0.2512
     12 N         139.6550  140.5296  157.0219 N.am    1  UNL1       -0.2223
     13 C         139.2912  144.3646  156.5463 C.ar    1  UNL1        0.0622
     14 C         140.2006  145.3836  157.1663 C.ar    1  UNL1        0.0154
     15 C         140.1484  146.8117  156.7103 C.ar    1  UNL1        0.0013
     16 C         139.1867  147.2207  155.6343 C.ar    1  UNL1        0.0001
     17 C         138.2772  146.2016  155.0143 C.ar    1  UNL1        0.0013
     18 C         138.3295  144.7736  155.4703 C.ar    1  UNL1        0.0154
     19 C         139.1344  148.6487  155.1783 C.ar    1  UNL1        0.0000
     20 C         138.4939  149.6904  156.0469 C.ar    1  UNL1        0.0000
     21 C         138.4416  151.1185  155.5909 C.ar    1  UNL1        0.0011
     22 C         139.0299  151.5049  154.2662 C.ar    1  UNL1        0.0140
     23 C         139.6705  150.4631  153.3976 C.ar    1  UNL1        0.0011
     24 C         139.7227  149.0350  153.8536 C.ar    1  UNL1        0.0000
     25 C         138.9776  152.9329  153.8102 C.2     1  UNL1        0.0729
     26 O         137.8905  153.3839  152.8803 O.co2   1  UNL1       -0.5446
     27 O         140.0124  153.9099  154.2842 O.co2   1  UNL1       -0.5446
     28 C         139.9689  139.1282  156.5890 C.ar    1  UNL1        0.1422
     29 C         141.3614  138.5911  156.7385 C.ar    1  UNL1        0.0554
     30 C         141.6752  137.1897  156.3056 C.ar    1  UNL1        0.1036
     31 N         140.5965  136.3252  155.7231 N.ar    1  UNL1       -0.2223
     32 C         139.2040  136.8623  155.5736 C.ar    1  UNL1        0.2001
     33 N         138.8902  138.2638  156.0065 N.ar    1  UNL1       -0.2086
     34 C         138.5049  138.2207  161.8986 C.3     1  UNL1        0.1183
     35 C         138.1476  139.8582  164.3867 C.3     1  UNL1        0.0323
     36 C         139.3425  138.9630  164.2432 C.ar    1  UNL1       -0.0069
     37 C         140.3588  138.8866  165.3438 C.ar    1  UNL1       -0.0015
     38 C         141.5538  137.9914  165.2003 C.ar    1  UNL1        0.0203
     39 C         141.7325  137.1726  163.9563 C.ar    1  UNL1        0.0985
     40 N         140.7162  137.2490  162.8556 N.ar    1  UNL1       -0.2471
     41 C         139.5212  138.1443  162.9991 C.ar    1  UNL1        0.0712
@<TRIPOS>UNITY_ATOM_ATTR
26 1
charge -1
@<TRIPOS>BOND
     1    35    36    1
     2    36    37   ar
     3    37    38   ar
     4    38    39   ar
     5    39    40   ar
     6    40    41   ar
     7    41    34    1
     8    34     1    1
     9     1     2    1
    10     2     3    1
    11     3     4    1
    12     4     5    1
    13     5     6    1
    14     4     7    1
    15     7     8    2
    16     7     9   am
    17     9    13    1
    18    13    14   ar
    19    14    15   ar
    20    15    16   ar
    21    16    19    1
    22    19    20   ar
    23    20    21   ar
    24    21    22   ar
    25    22    25    1
    26    25    26   ar
    27    25    27   ar
    28    22    23   ar
    29    23    24   ar
    30    16    17   ar
    31    17    18   ar
    32     9    10   am
    33    10    11    2
    34    10    12   am
    35    12    28    1
    36    28    29   ar
    37    29    30   ar
    38    30    31   ar
    39    31    32   ar
    40    32    33   ar
    41    41    36   ar
    42     6     1    1
    43    18    13   ar
    44    33    28   ar
    45    12     4    1
    46    24    19   ar
@<TRIPOS>MOLECULE
*****
 41 46 0 0 0
SMALL
GASTEIGER

@<TRIPOS>ATOM
      1 N         143.4011  142.7015  155.5958 N.3     1  UNL1       -0.2676
      2 C         142.1900  143.5859  155.6274 C.3     1  UNL1        0.0746
      3 C         141.5040  143.8718  156.9304 C.3     1  UNL1        0.0449
      4 C         142.0292  143.2734  158.2016 C.3     1  UNL1        0.1391
      5 C         143.2403  142.3890  158.1700 C.3     1  UNL1        0.0449
      6 C         143.9262  142.1031  156.8671 C.3     1  UNL1        0.0746
      7 C         142.4369  142.7489  159.5465 C.2     1  UNL1        0.2529
      8 O         143.6023  141.8463  159.8245 O.2     1  UNL1       -0.2724
      9 N         141.4747  143.2854  160.5646 N.am    1  UNL1       -0.1907
     10 C         140.4722  144.1415  159.8488 C.2     1  UNL1        0.3219
     11 O         139.3281  144.8760  160.4822 O.2     1  UNL1       -0.2512
     12 N         140.8149  144.1341  158.3885 N.am    1  UNL1       -0.2223
     13 C         141.5089  143.0136  162.0393 C.ar    1  UNL1        0.0622
     14 C         140.8645  141.7756  162.5889 C.ar    1  UNL1        0.0154
     15 C         140.8987  141.5038  164.0636 C.ar    1  UNL1        0.0013
     16 C         141.5774  142.4699  164.9888 C.ar    1  UNL1        0.0001
     17 C         142.2219  143.7079  164.4392 C.ar    1  UNL1        0.0013
     18 C         142.1876  143.9797  162.9644 C.ar    1  UNL1        0.0154
     19 C         141.6116  142.1980  166.4635 C.ar    1  UNL1        0.0000
     20 C         142.8993  142.3322  167.2212 C.ar    1  UNL1        0.0000
     21 C         142.9335  142.0603  168.6960 C.ar    1  UNL1        0.0011
     22 C         141.6801  141.6543  169.4131 C.ar    1  UNL1        0.0140
     23 C         140.3925  141.5201  168.6554 C.ar    1  UNL1        0.0011
     24 C         140.3583  141.7920  167.1806 C.ar    1  UNL1        0.0000
     25 C         141.7143  141.3825  170.8879 C.2     1  UNL1        0.0729
     26 O         142.6596  140.3568  171.4396 O.co2   1  UNL1       -0.5446
     27 O         140.8033  142.1362  171.8108 O.co2   1  UNL1       -0.5446
     28 C         140.0735  144.8599  157.3052 C.ar    1  UNL1        0.1422
     29 C         140.3719  146.3039  157.0299 C.ar    1  UNL1        0.0554
     30 C         139.6305  147.0296  155.9466 C.ar    1  UNL1        0.1036
     31 N         138.5907  146.3114  155.1385 N.ar    1  UNL1       -0.2223
     32 C         138.2923  144.8674  155.4138 C.ar    1  UNL1        0.2001
     33 N         139.0337  144.1417  156.4971 N.ar    1  UNL1       -0.2086
     34 C         144.0871  142.4155  154.2928 C.3     1  UNL1        0.1183
     35 C         144.2337  145.1196  153.0020 C.3     1  UNL1        0.0323
     36 C         145.4945  144.3857  153.3507 C.ar    1  UNL1       -0.0069
     37 C         146.8286  145.0038  153.0540 C.ar    1  UNL1       -0.0015
     38 C         148.0895  144.2699  153.4028 C.ar    1  UNL1        0.0203
     39 C         148.0162  142.9179  154.0482 C.ar    1  UNL1        0.0985
     40 N         146.6821  142.2997  154.3449 N.ar    1  UNL1       -0.2471
     41 C         145.4212  143.0336  153.9962 C.ar    1  UNL1        0.0712
@<TRIPOS>UNITY_ATOM_ATTR
26 1
charge -1
@<TRIPOS>BOND
     1    35    36    1
     2    36    37   ar
     3    37    38   ar
     4    38    39   ar
     5    39    40   ar
     6    40    41   ar
     7    41    34    1
     8    34     1    1
     9     1     2    1
    10     2     3    1
    11     3     4    1
    12     4     5    1
    13     5     6    1
    14     4     7    1
    15     7     8    2
    16     7     9   am
    17     9    13    1
    18    13    14   ar
    19    14    15   ar
    20    15    16   ar
    21    16    19    1
    22    19    20   ar
    23    20    21   ar
    24    21    22   ar
    25    22    25    1
    26    25    26   ar
    27    25    27   ar
    28    22    23   ar
    29    23    24   ar
    30    16    17   ar
    31    17    18   ar
    32     9    10   am
    33    10    11    2
    34    10    12   am
    35    12    28    1
    36    28    29   ar
    37    29    30   ar
    38    30    31   ar
    39    31    32   ar
    40    32    33   ar
    41    41    36   ar
    42     6     1    1
    43    18    13   ar
    44    33    28   ar
    45    12     4    1
    46    24    19   ar
@<TRIPOS>MOLECULE
*****
 41 46 0 0 0
SMALL
GASTEIGER

@<TRIPOS>ATOM
      1 N         138.7724  139.1568  160.9176 N.3     1  UNL1       -0.2676
      2 C         139.4553  138.5693  159.7183 C.3     1  UNL1        0.0746
      3 C         139.7896  139.4405  158.5439 C.3     1  UNL1        0.0449
      4 C         139.4410  140.8992  158.5688 C.3     1  UNL1        0.1391
      5 C         138.7580  141.4867  159.7681 C.3     1  UNL1        0.0449
      6 C         138.4237  140.6155  160.9425 C.3     1  UNL1        0.0746
      7 C         139.1557  142.3670  158.4504 C.2     1  UNL1        0.2529
      8 O         138.4859  143.2214  159.4855 O.2     1  UNL1       -0.2724
      9 N         139.6577  142.8305  157.1149 N.am    1  UNL1       -0.1907
     10 C         140.2533  141.6491  156.4081 C.2     1  UNL1        0.3219
     11 O         140.8738  141.6595  155.0426 O.2     1  UNL1       -0.2512
     12 N         140.1194  140.4555  157.3066 N.am    1  UNL1       -0.2223
     13 C         139.5781  144.2297  156.5803 C.ar    1  UNL1        0.0622
     14 C         138.4190  144.6394  155.7210 C.ar    1  UNL1        0.0154
     15 C         138.3394  146.0386  155.1863 C.ar    1  UNL1        0.0013
     16 C         139.4189  147.0281  155.5110 C.ar    1  UNL1        0.0001
     17 C         140.5781  146.6184  156.3703 C.ar    1  UNL1        0.0013
     18 C         140.6577  145.2192  156.9050 C.ar    1  UNL1        0.0154
     19 C         139.3393  148.4273  154.9763 C.ar    1  UNL1        0.0000
     20 C         139.8856  148.7424  153.6153 C.ar    1  UNL1        0.0000
     21 C         139.8060  150.1416  153.0806 C.ar    1  UNL1        0.0011
     22 C         139.1801  151.2258  153.9070 C.ar    1  UNL1        0.0140
     23 C         138.6338  150.9108  155.2680 C.ar    1  UNL1        0.0011
     24 C         138.7135  149.5115  155.8027 C.ar    1  UNL1        0.0000
     25 C         139.1005  152.6250  153.3723 C.2     1  UNL1        0.0729
     26 O         140.3463  153.4504  153.2428 O.co2   1  UNL1       -0.5446
     27 O         137.7751  153.1988  152.9672 O.co2   1  UNL1       -0.5446
     28 C         140.5825  139.0627  156.9974 C.ar    1  UNL1        0.1422
     29 C         139.6926  138.1291  156.2315 C.ar    1  UNL1        0.0554
     30 C         140.1558  136.7363  155.9223 C.ar    1  UNL1        0.1036
     31 N         141.5088  136.2771  156.3790 N.ar    1  UNL1       -0.2223
     32 C         142.3987  137.2107  157.1448 C.ar    1  UNL1        0.2001
     33 N         141.9355  138.6035  157.4540 N.ar    1  UNL1       -0.2086
     34 C         138.4380  138.2856  162.0921 C.3     1  UNL1        0.1183
     35 C         141.1034  137.3052  163.0588 C.3     1  UNL1        0.0323
     36 C         140.2542  138.1663  163.9461 C.ar    1  UNL1       -0.0069
     37 C         140.7376  138.5372  165.3168 C.ar    1  UNL1       -0.0015
     38 C         139.8883  139.3982  166.2041 C.ar    1  UNL1        0.0203
     39 C         138.5557  139.8884  165.7207 C.ar    1  UNL1        0.0985
     40 N         138.0722  139.5175  164.3500 N.ar    1  UNL1       -0.2471
     41 C         138.9214  138.6565  163.4627 C.ar    1  UNL1        0.0712
@<TRIPOS>UNITY_ATOM_ATTR
26 1
charge -1
@<TRIPOS>BOND
     1    35    36    1
     2    36    37   ar
     3    37    38   ar
     4    38    39   ar
     5    39    40   ar
     6    40    41   ar
     7    41    34    1
     8    34     1    1
     9     1     2    1
    10     2     3    1
    11     3     4    1
    12     4     5    1
    13     5     6    1
    14     4     7    1
    15     7     8    2
    16     7     9   am
    17     9    13    1
    18    13    14   ar
    19    14    15   ar
    20    15    16   ar
    21    16    19    1
    22    19    20   ar
    23    20    21   ar
    24    21    22   ar
    25    22    25    1
    26    25    26   ar
    27    25    27   ar
    28    22    23   ar
    29    23    24   ar
    30    16    17   ar
    31    17    18   ar
    32     9    10   am
    33    10    11    2
    34    10    12   am
    35    12    28    1
    36    28    29   ar
    37    29    30   ar
    38    30    31   ar
    39    31    32   ar
    40    32    33   ar
    41    41    36   ar
    42     6     1    1
    43    18    13   ar
    44    33    28   ar
    45    12     4    1
    46    24    19   ar
