@<TRIPOS>MOLECULE
*****
 40 43 0 0 0
SMALL
GASTEIGER

@<TRIPOS>ATOM
      1 C         140.6570  140.5060  163.1628 C.3     1  UNL1        0.0822
      2 C         140.3703  140.4660  164.6346 C.ar    1  UNL1        0.0375
      3 C         140.6139  141.6813  165.4794 C.ar    1  UNL1        0.0023
      4 C         140.3272  141.6413  166.9513 C.ar    1  UNL1        0.0181
      5 C         140.5708  142.8565  167.7961 C.ar    1  UNL1        0.0082
      6 C         140.2841  142.8165  169.2679 C.ar    1  UNL1        0.0347
      7 BR        140.5276  144.0318  170.1128 Br      1  UNL1       -0.0490
      8 C         139.7538  141.5612  169.8948 C.ar    1  UNL1        0.0082
      9 C         139.5102  140.3460  169.0500 C.ar    1  UNL1        0.0197
     10 C         139.7969  140.3860  167.5782 C.ar    1  UNL1        0.0844
     11 N         139.5534  139.1707  166.7333 N.ar    1  UNL1       -0.2119
     12 C         139.8401  139.2107  165.2616 C.ar    1  UNL1        0.2211
     13 O         139.5965  137.9954  164.4167 O.3     1  UNL1       -0.4563
     14 C         140.5624  136.8484  164.4565 C.3     1  UNL1        0.2542
     15 C         141.7457  139.6496  162.5872 C.ar    1  UNL1        0.0375
     16 C         143.1485  139.7718  163.1042 C.ar    1  UNL1        0.0023
     17 C         144.2372  138.9154  162.5286 C.ar    1  UNL1        0.0206
     18 C         143.9231  137.9367  161.4360 C.ar    1  UNL1        0.1020
     19 N         142.5203  137.8145  160.9191 N.ar    1  UNL1       -0.2104
     20 C         141.4316  138.6710  161.4947 C.ar    1  UNL1        0.2211
     21 O         140.0288  138.5488  160.9777 O.3     1  UNL1       -0.4563
     22 C         139.7334  138.8354  159.5353 C.3     1  UNL1        0.2542
     23 C         139.8550  141.4024  162.2665 C.3     1  UNL1        0.1163
     24 O         138.6197  140.6119  162.5814 O.3     1  UNL1       -0.3820
     25 H         137.8644  140.9880  162.1028 H       1  UNL1        0.2107
     26 C         143.0325  143.7354  162.7254 C.ar    1  UNL1        0.2272
     27 C         141.7972  142.9449  163.0402 C.ar    1  UNL1        0.0559
     28 C         141.0903  142.1929  161.9517 C.ar    1  UNL1        0.0117
     29 C         141.6188  142.2314  160.5485 C.ar    1  UNL1        0.0559
     30 C         142.8541  143.0219  160.2337 C.ar    1  UNL1        0.2272
     31 N         143.5609  143.7739  161.3221 N.ar    1  UNL1       -0.1767
     32 C         144.2310  143.7604  165.0304 C.3     1  UNL1        0.2542
     33 O         143.7394  144.4874  163.8139 O.3     1  UNL1       -0.4561
     34 O         143.3825  143.0604  158.8303 O.3     1  UNL1       -0.4561
     35 C         144.7242  142.4670  158.5176 C.3     1  UNL1        0.2542
     36 C         139.0530  142.2988  161.3703 C.3     1  UNL1        0.0491
     37 C         137.9865  143.1796  161.9505 C.3     1  UNL1        0.0750
     38 N         138.3503  144.2430  162.9439 N.3     1  UNL1       -0.2702
     39 C         139.1343  145.4437  162.5040 C.3     1  UNL1        0.0897
     40 C         137.9302  144.1056  164.3773 C.3     1  UNL1        0.0897
@<TRIPOS>BOND
     1    32    33    1
     2    33    26    1
     3    26    27   ar
     4    27    28   ar
     5    28    23    1
     6    23    24    1
     7    23    36    1
     8    36    37    1
     9    37    38    1
    10    38    39    1
    11    38    40    1
    12    23     1    1
    13     1    15    1
    14    15    16   ar
    15    16    17   ar
    16    17    18   ar
    17    18    19   ar
    18    19    20   ar
    19    20    21    1
    20    21    22    1
    21     1     2    1
    22     2     3   ar
    23     3     4   ar
    24     4     5   ar
    25     5     6   ar
    26     6     7    1
    27     6     8   ar
    28     8     9   ar
    29     9    10   ar
    30    10    11   ar
    31    11    12   ar
    32    12    13    1
    33    13    14    1
    34    28    29   ar
    35    29    30   ar
    36    30    34    1
    37    34    35    1
    38    30    31   ar
    39    31    26   ar
    40    20    15   ar
    41    12     2   ar
    42    10     4   ar
    43    24    25    1
@<TRIPOS>MOLECULE
*****
 40 43 0 0 0
SMALL
GASTEIGER

@<TRIPOS>ATOM
      1 C         140.7456  140.6099  163.0885 C.3     1  UNL1        0.0822
      2 C         140.4641  140.5245  164.5594 C.ar    1  UNL1        0.0375
      3 C         140.6442  141.7335  165.4289 C.ar    1  UNL1        0.0023
      4 C         140.3627  141.6481  166.8998 C.ar    1  UNL1        0.0181
      5 C         140.5428  142.8570  167.7693 C.ar    1  UNL1        0.0082
      6 C         140.2614  142.7716  169.2401 C.ar    1  UNL1        0.0347
      7 BR        140.4415  143.9806  170.1096 Br      1  UNL1       -0.0490
      8 C         139.7998  141.4773  169.8415 C.ar    1  UNL1        0.0082
      9 C         139.6196  140.2684  168.9720 C.ar    1  UNL1        0.0197
     10 C         139.9011  140.3538  167.5012 C.ar    1  UNL1        0.0844
     11 N         139.7210  139.1448  166.6316 N.ar    1  UNL1       -0.2119
     12 C         140.0025  139.2302  165.1608 C.ar    1  UNL1        0.2211
     13 O         139.8224  138.0213  164.2912 O.3     1  UNL1       -0.4563
     14 C         140.8032  136.8890  164.3685 C.3     1  UNL1        0.2542
     15 C         141.7440  139.6830  162.4609 C.ar    1  UNL1        0.0375
     16 C         143.1557  139.6475  162.9667 C.ar    1  UNL1        0.0023
     17 C         144.1542  138.7206  162.3391 C.ar    1  UNL1        0.0206
     18 C         143.7409  137.8290  161.2057 C.ar    1  UNL1        0.1020
     19 N         142.3292  137.8645  160.7000 N.ar    1  UNL1       -0.2104
     20 C         141.3307  138.7915  161.3276 C.ar    1  UNL1        0.2211
     21 O         139.9190  138.8270  160.8218 O.3     1  UNL1       -0.4563
     22 C         139.6408  139.2208  159.4015 C.3     1  UNL1        0.2542
     23 C         140.0286  141.6222  162.2452 C.3     1  UNL1        0.1163
     24 O         138.7282  140.9240  162.5127 O.3     1  UNL1       -0.3820
     25 H         138.0108  141.3907  162.0562 H       1  UNL1        0.2107
     26 C         143.2146  143.0106  160.3291 C.ar    1  UNL1        0.2272
     27 C         141.9143  142.3125  160.5966 C.ar    1  UNL1        0.0559
     28 C         141.3290  142.3204  161.9777 C.ar    1  UNL1        0.0117
     29 C         142.0440  143.0265  163.0912 C.ar    1  UNL1        0.0559
     30 C         143.3444  143.7247  162.8237 C.ar    1  UNL1        0.2272
     31 N         143.9297  143.7168  161.4427 N.ar    1  UNL1       -0.1767
     32 C         143.0270  143.5862  157.8025 C.3     1  UNL1        0.2542
     33 O         143.7999  143.0027  158.9480 O.3     1  UNL1       -0.4561
     34 O         144.0595  144.4308  163.9373 O.3     1  UNL1       -0.4561
     35 C         144.4398  143.6804  165.1792 C.3     1  UNL1        0.2542
     36 C         139.3116  142.6345  161.4019 C.3     1  UNL1        0.0491
     37 C         138.4100  143.6448  162.0472 C.3     1  UNL1        0.0750
     38 N         138.9972  144.7980  162.8055 N.3     1  UNL1       -0.2702
     39 C         139.6655  145.9192  162.0665 C.3     1  UNL1        0.0897
     40 C         138.9160  144.8302  164.3030 C.3     1  UNL1        0.0897
@<TRIPOS>BOND
     1    32    33    1
     2    33    26    1
     3    26    27   ar
     4    27    28   ar
     5    28    23    1
     6    23    24    1
     7    23    36    1
     8    36    37    1
     9    37    38    1
    10    38    39    1
    11    38    40    1
    12    23     1    1
    13     1    15    1
    14    15    16   ar
    15    16    17   ar
    16    17    18   ar
    17    18    19   ar
    18    19    20   ar
    19    20    21    1
    20    21    22    1
    21     1     2    1
    22     2     3   ar
    23     3     4   ar
    24     4     5   ar
    25     5     6   ar
    26     6     7    1
    27     6     8   ar
    28     8     9   ar
    29     9    10   ar
    30    10    11   ar
    31    11    12   ar
    32    12    13    1
    33    13    14    1
    34    28    29   ar
    35    29    30   ar
    36    30    34    1
    37    34    35    1
    38    30    31   ar
    39    31    26   ar
    40    20    15   ar
    41    12     2   ar
    42    10     4   ar
    43    24    25    1
@<TRIPOS>MOLECULE
*****
 40 43 0 0 0
SMALL
GASTEIGER

@<TRIPOS>ATOM
      1 C         141.3223  140.6847  163.1789 C.3     1  UNL1        0.0822
      2 C         141.4192  140.6059  164.6737 C.ar    1  UNL1        0.0375
      3 C         141.0066  141.7774  165.5148 C.ar    1  UNL1        0.0023
      4 C         141.1036  141.6986  167.0096 C.ar    1  UNL1        0.0181
      5 C         140.6910  142.8700  167.8507 C.ar    1  UNL1        0.0082
      6 C         140.7880  142.7912  169.3455 C.ar    1  UNL1        0.0347
      7 BR        140.3754  143.9627  170.1867 Br      1  UNL1       -0.0490
      8 C         141.2975  141.5410  169.9992 C.ar    1  UNL1        0.0082
      9 C         141.7101  140.3696  169.1581 C.ar    1  UNL1        0.0197
     10 C         141.6131  140.4484  167.6633 C.ar    1  UNL1        0.0844
     11 N         142.0257  139.2769  166.8221 N.ar    1  UNL1       -0.2119
     12 C         141.9287  139.3557  165.3274 C.ar    1  UNL1        0.2211
     13 O         142.3413  138.1842  164.4862 O.3     1  UNL1       -0.4563
     14 C         141.4326  136.9980  164.3551 C.3     1  UNL1        0.2542
     15 C         140.2565  139.9166  162.4549 C.ar    1  UNL1        0.0375
     16 C         138.8116  140.1428  162.7883 C.ar    1  UNL1        0.0023
     17 C         137.7458  139.3747  162.0643 C.ar    1  UNL1        0.0206
     18 C         138.1248  138.3805  161.0070 C.ar    1  UNL1        0.1020
     19 N         139.5698  138.1544  160.6736 N.ar    1  UNL1       -0.2104
     20 C         140.6356  138.9225  161.3976 C.ar    1  UNL1        0.2211
     21 O         142.0805  138.6964  161.0643 O.3     1  UNL1       -0.4563
     22 C         142.5863  138.9895  159.6830 C.3     1  UNL1        0.2542
     23 C         142.2912  141.5315  162.4081 C.3     1  UNL1        0.1163
     24 O         143.4059  140.6031  162.7893 O.3     1  UNL1       -0.3820
     25 H         144.2369  140.9192  162.4016 H       1  UNL1        0.2107
     26 C         139.5533  143.4102  160.2345 C.ar    1  UNL1        0.2272
     27 C         140.6680  142.4818  160.6158 C.ar    1  UNL1        0.0559
     28 C         141.1764  142.4599  162.0268 C.ar    1  UNL1        0.0117
     29 C         140.5700  143.3664  163.0566 C.ar    1  UNL1        0.0559
     30 C         139.4553  144.2949  162.6753 C.ar    1  UNL1        0.2272
     31 N         138.9469  144.3168  161.2643 N.ar    1  UNL1       -0.1767
     32 C         140.0116  143.5102  157.6791 C.3     1  UNL1        0.2542
     33 O         139.0449  143.4321  158.8234 O.3     1  UNL1       -0.4561
     34 O         138.8489  145.2014  163.7052 O.3     1  UNL1       -0.4561
     35 C         138.8327  144.7923  165.1482 C.3     1  UNL1        0.2542
     36 C         143.2601  142.3783  161.6373 C.3     1  UNL1        0.0491
     37 C         144.4240  143.0134  162.3385 C.3     1  UNL1        0.0750
     38 N         144.2165  143.7256  163.6423 N.3     1  UNL1       -0.2702
     39 C         143.6718  145.1231  163.6550 C.3     1  UNL1        0.0897
     40 C         144.5536  143.0402  164.9332 C.3     1  UNL1        0.0897
@<TRIPOS>BOND
     1    32    33    1
     2    33    26    1
     3    26    27   ar
     4    27    28   ar
     5    28    23    1
     6    23    24    1
     7    23    36    1
     8    36    37    1
     9    37    38    1
    10    38    39    1
    11    38    40    1
    12    23     1    1
    13     1    15    1
    14    15    16   ar
    15    16    17   ar
    16    17    18   ar
    17    18    19   ar
    18    19    20   ar
    19    20    21    1
    20    21    22    1
    21     1     2    1
    22     2     3   ar
    23     3     4   ar
    24     4     5   ar
    25     5     6   ar
    26     6     7    1
    27     6     8   ar
    28     8     9   ar
    29     9    10   ar
    30    10    11   ar
    31    11    12   ar
    32    12    13    1
    33    13    14    1
    34    28    29   ar
    35    29    30   ar
    36    30    34    1
    37    34    35    1
    38    30    31   ar
    39    31    26   ar
    40    20    15   ar
    41    12     2   ar
    42    10     4   ar
    43    24    25    1
@<TRIPOS>MOLECULE
*****
 40 43 0 0 0
SMALL
GASTEIGER

@<TRIPOS>ATOM
      1 C         141.3607  140.6518  163.1960 C.3     1  UNL1        0.0822
      2 C         141.4334  140.5911  164.6931 C.ar    1  UNL1        0.0375
      3 C         141.0232  141.7786  165.5126 C.ar    1  UNL1        0.0023
      4 C         141.0958  141.7180  167.0096 C.ar    1  UNL1        0.0181
      5 C         140.6857  142.9054  167.8291 C.ar    1  UNL1        0.0082
      6 C         140.7583  142.8448  169.3261 C.ar    1  UNL1        0.0347
      7 BR        140.3481  144.0323  170.1457 Br      1  UNL1       -0.0490
      8 C         141.2411  141.5966  170.0036 C.ar    1  UNL1        0.0082
      9 C         141.6513  140.4091  169.1841 C.ar    1  UNL1        0.0197
     10 C         141.5787  140.4698  167.6871 C.ar    1  UNL1        0.0844
     11 N         141.9888  139.2823  166.8675 N.ar    1  UNL1       -0.2119
     12 C         141.9162  139.3430  165.3706 C.ar    1  UNL1        0.2211
     13 O         142.3264  138.1555  164.5510 O.3     1  UNL1       -0.4563
     14 C         141.3978  136.9862  164.4078 C.3     1  UNL1        0.2542
     15 C         140.2826  139.9064  162.4666 C.ar    1  UNL1        0.0375
     16 C         138.8404  140.1886  162.7676 C.ar    1  UNL1        0.0023
     17 C         137.7623  139.4433  162.0382 C.ar    1  UNL1        0.0206
     18 C         138.1263  138.4157  161.0078 C.ar    1  UNL1        0.1020
     19 N         139.5684  138.1335  160.7069 N.ar    1  UNL1       -0.2104
     20 C         140.6466  138.8789  161.4363 C.ar    1  UNL1        0.2211
     21 O         142.0887  138.5967  161.1354 O.3     1  UNL1       -0.4563
     22 C         142.6340  138.8602  159.7631 C.3     1  UNL1        0.2542
     23 C         142.3663  141.4578  162.4284 C.3     1  UNL1        0.1163
     24 O         143.4557  140.5331  162.8847 O.3     1  UNL1       -0.3820
     25 H         144.3036  140.8253  162.5150 H       1  UNL1        0.2107
     26 C         139.5265  144.2292  162.4970 C.ar    1  UNL1        0.2272
     27 C         140.6160  143.3046  162.9533 C.ar    1  UNL1        0.0559
     28 C         141.2768  142.3824  161.9721 C.ar    1  UNL1        0.0117
     29 C         140.8483  142.3848  160.5347 C.ar    1  UNL1        0.0559
     30 C         139.7588  143.3094  160.0784 C.ar    1  UNL1        0.2272
     31 N         139.0979  144.2316  161.0596 N.ar    1  UNL1       -0.1767
     32 C         138.8522  144.8081  164.9384 C.3     1  UNL1        0.2542
     33 O         138.8656  145.1514  163.4783 O.3     1  UNL1       -0.4561
     34 O         139.3303  143.3118  158.6409 O.3     1  UNL1       -0.4561
     35 C         140.3497  143.1394  157.5541 C.3     1  UNL1        0.2542
     36 C         143.3718  142.2638  161.6608 C.3     1  UNL1        0.0491
     37 C         144.5037  142.9340  162.3816 C.3     1  UNL1        0.0750
     38 N         144.2387  143.7071  163.6395 N.3     1  UNL1       -0.2702
     39 C         144.5331  143.0906  164.9748 C.3     1  UNL1        0.0897
     40 C         143.6794  145.0968  163.5619 C.3     1  UNL1        0.0897
@<TRIPOS>BOND
     1    32    33    1
     2    33    26    1
     3    26    27   ar
     4    27    28   ar
     5    28    23    1
     6    23    24    1
     7    23    36    1
     8    36    37    1
     9    37    38    1
    10    38    39    1
    11    38    40    1
    12    23     1    1
    13     1    15    1
    14    15    16   ar
    15    16    17   ar
    16    17    18   ar
    17    18    19   ar
    18    19    20   ar
    19    20    21    1
    20    21    22    1
    21     1     2    1
    22     2     3   ar
    23     3     4   ar
    24     4     5   ar
    25     5     6   ar
    26     6     7    1
    27     6     8   ar
    28     8     9   ar
    29     9    10   ar
    30    10    11   ar
    31    11    12   ar
    32    12    13    1
    33    13    14    1
    34    28    29   ar
    35    29    30   ar
    36    30    34    1
    37    34    35    1
    38    30    31   ar
    39    31    26   ar
    40    20    15   ar
    41    12     2   ar
    42    10     4   ar
    43    24    25    1
@<TRIPOS>MOLECULE
*****
 40 43 0 0 0
SMALL
GASTEIGER

@<TRIPOS>ATOM
      1 C         141.6529  141.4483  163.6188 C.3     1  UNL1        0.0822
      2 C         142.1046  141.7166  165.0238 C.ar    1  UNL1        0.0375
      3 C         141.3760  141.0940  166.1777 C.ar    1  UNL1        0.0023
      4 C         141.8277  141.3623  167.5827 C.ar    1  UNL1        0.0181
      5 C         141.0991  140.7398  168.7366 C.ar    1  UNL1        0.0082
      6 C         141.5509  141.0081  170.1415 C.ar    1  UNL1        0.0347
      7 BR        140.8222  140.3855  171.2955 Br      1  UNL1       -0.0490
      8 C         142.7313  141.8989  170.3926 C.ar    1  UNL1        0.0082
      9 C         143.4599  142.5215  169.2387 C.ar    1  UNL1        0.0197
     10 C         143.0081  142.2532  167.8338 C.ar    1  UNL1        0.0844
     11 N         143.7368  142.8757  166.6798 N.ar    1  UNL1       -0.2119
     12 C         143.2850  142.6074  165.2749 C.ar    1  UNL1        0.2211
     13 O         144.0137  143.2300  164.1209 O.3     1  UNL1       -0.4563
     14 C         143.9005  144.7045  163.8700 C.3     1  UNL1        0.2542
     15 C         142.5033  140.6187  162.7031 C.ar    1  UNL1        0.0375
     16 C         142.8421  139.2044  163.0705 C.ar    1  UNL1        0.0023
     17 C         143.6925  138.3748  162.1547 C.ar    1  UNL1        0.0206
     18 C         144.2041  138.9595  160.8715 C.ar    1  UNL1        0.1020
     19 N         143.8652  140.3738  160.5041 N.ar    1  UNL1       -0.2104
     20 C         143.0148  141.2034  161.4199 C.ar    1  UNL1        0.2211
     21 O         142.6759  142.6177  161.0525 O.3     1  UNL1       -0.4563
     22 C         143.1551  143.1899  159.7515 C.3     1  UNL1        0.2542
     23 C         140.3507  142.0096  163.1296 C.3     1  UNL1        0.1163
     24 O         140.9075  143.3980  163.2409 O.3     1  UNL1       -0.3820
     25 H         140.2336  144.0395  162.9666 H       1  UNL1        0.2107
     26 C         138.7978  138.4999  164.1397 C.ar    1  UNL1        0.2272
     27 C         139.3545  139.8883  164.2510 C.ar    1  UNL1        0.0559
     28 C         139.7940  140.6212  163.0183 C.ar    1  UNL1        0.0117
     29 C         139.6769  139.9657  161.6742 C.ar    1  UNL1        0.0559
     30 C         139.1202  138.5772  161.5629 C.ar    1  UNL1        0.2272
     31 N         138.6806  137.8444  162.7956 N.ar    1  UNL1       -0.1767
     32 C         137.9370  138.5341  166.5908 C.3     1  UNL1        0.2542
     33 O         138.3582  137.7671  165.3725 O.3     1  UNL1       -0.4561
     34 O         139.0030  137.9217  160.2188 O.3     1  UNL1       -0.4561
     35 C         139.6595  138.5429  159.0216 C.3     1  UNL1        0.2542
     36 C         139.0486  142.5709  162.6403 C.3     1  UNL1        0.0491
     37 C         139.0013  143.9473  162.0460 C.3     1  UNL1        0.0750
     38 N         139.5501  144.1899  160.6712 N.3     1  UNL1       -0.2702
     39 C         140.2665  145.4717  160.3650 C.3     1  UNL1        0.0897
     40 C         139.3827  143.1506  159.6027 C.3     1  UNL1        0.0897
@<TRIPOS>BOND
     1    32    33    1
     2    33    26    1
     3    26    27   ar
     4    27    28   ar
     5    28    23    1
     6    23    24    1
     7    23    36    1
     8    36    37    1
     9    37    38    1
    10    38    39    1
    11    38    40    1
    12    23     1    1
    13     1    15    1
    14    15    16   ar
    15    16    17   ar
    16    17    18   ar
    17    18    19   ar
    18    19    20   ar
    19    20    21    1
    20    21    22    1
    21     1     2    1
    22     2     3   ar
    23     3     4   ar
    24     4     5   ar
    25     5     6   ar
    26     6     7    1
    27     6     8   ar
    28     8     9   ar
    29     9    10   ar
    30    10    11   ar
    31    11    12   ar
    32    12    13    1
    33    13    14    1
    34    28    29   ar
    35    29    30   ar
    36    30    34    1
    37    34    35    1
    38    30    31   ar
    39    31    26   ar
    40    20    15   ar
    41    12     2   ar
    42    10     4   ar
    43    24    25    1
@<TRIPOS>MOLECULE
*****
 40 43 0 0 0
SMALL
GASTEIGER

@<TRIPOS>ATOM
      1 C         141.6539  141.3846  163.5455 C.3     1  UNL1        0.0822
      2 C         142.1124  141.6551  164.9479 C.ar    1  UNL1        0.0375
      3 C         141.3297  141.1186  166.1095 C.ar    1  UNL1        0.0023
      4 C         141.7882  141.3891  167.5119 C.ar    1  UNL1        0.0181
      5 C         141.0054  140.8526  168.6735 C.ar    1  UNL1        0.0082
      6 C         141.4640  141.1231  170.0759 C.ar    1  UNL1        0.0347
      7 BR        140.6812  140.5866  171.2376 Br      1  UNL1       -0.0490
      8 C         142.7052  141.9301  170.3166 C.ar    1  UNL1        0.0082
      9 C         143.4880  142.4666  169.1549 C.ar    1  UNL1        0.0197
     10 C         143.0295  142.1961  167.7526 C.ar    1  UNL1        0.0844
     11 N         143.8123  142.7326  166.5909 N.ar    1  UNL1       -0.2119
     12 C         143.3537  142.4621  165.1886 C.ar    1  UNL1        0.2211
     13 O         144.1365  142.9986  164.0269 O.3     1  UNL1       -0.4563
     14 C         145.4383  142.3610  163.6411 C.3     1  UNL1        0.2542
     15 C         142.4904  140.5373  162.6332 C.ar    1  UNL1        0.0375
     16 C         142.8347  139.1303  163.0226 C.ar    1  UNL1        0.0023
     17 C         143.6712  138.2830  162.1103 C.ar    1  UNL1        0.0206
     18 C         144.1635  138.8427  160.8086 C.ar    1  UNL1        0.1020
     19 N         143.8192  140.2498  160.4192 N.ar    1  UNL1       -0.2104
     20 C         142.9826  141.0971  161.3316 C.ar    1  UNL1        0.2211
     21 O         142.6383  142.5042  160.9422 O.3     1  UNL1       -0.4563
     22 C         143.1863  143.0866  159.6732 C.3     1  UNL1        0.2542
     23 C         140.3589  141.9615  163.0554 C.3     1  UNL1        0.1163
     24 O         140.9262  143.3441  163.1837 O.3     1  UNL1       -0.3820
     25 H         140.2590  143.9938  162.9126 H       1  UNL1        0.2107
     26 C         139.0774  138.5684  161.4446 C.ar    1  UNL1        0.2272
     27 C         139.6448  139.9510  161.5728 C.ar    1  UNL1        0.0559
     28 C         139.7915  140.5788  162.9272 C.ar    1  UNL1        0.0117
     29 C         139.3710  139.8240  164.1533 C.ar    1  UNL1        0.0559
     30 C         138.8036  138.4414  164.0250 C.ar    1  UNL1        0.2272
     31 N         138.6569  137.8136  162.6706 N.ar    1  UNL1       -0.1767
     32 C         139.7052  138.4814  158.9249 C.3     1  UNL1        0.2542
     33 O         138.9307  137.9406  160.0901 O.3     1  UNL1       -0.4561
     34 O         138.3831  137.6865  165.2512 O.3     1  UNL1       -0.4561
     35 C         137.9669  138.4317  166.4847 C.3     1  UNL1        0.2542
     36 C         139.0639  142.5383  162.5654 C.3     1  UNL1        0.0491
     37 C         139.0312  143.9199  161.9822 C.3     1  UNL1        0.0750
     38 N         139.5766  144.1664  160.6067 N.3     1  UNL1       -0.2702
     39 C         140.3052  145.4426  160.3064 C.3     1  UNL1        0.0897
     40 C         139.3932  143.1367  159.5316 C.3     1  UNL1        0.0897
@<TRIPOS>BOND
     1    32    33    1
     2    33    26    1
     3    26    27   ar
     4    27    28   ar
     5    28    23    1
     6    23    24    1
     7    23    36    1
     8    36    37    1
     9    37    38    1
    10    38    39    1
    11    38    40    1
    12    23     1    1
    13     1    15    1
    14    15    16   ar
    15    16    17   ar
    16    17    18   ar
    17    18    19   ar
    18    19    20   ar
    19    20    21    1
    20    21    22    1
    21     1     2    1
    22     2     3   ar
    23     3     4   ar
    24     4     5   ar
    25     5     6   ar
    26     6     7    1
    27     6     8   ar
    28     8     9   ar
    29     9    10   ar
    30    10    11   ar
    31    11    12   ar
    32    12    13    1
    33    13    14    1
    34    28    29   ar
    35    29    30   ar
    36    30    34    1
    37    34    35    1
    38    30    31   ar
    39    31    26   ar
    40    20    15   ar
    41    12     2   ar
    42    10     4   ar
    43    24    25    1
@<TRIPOS>MOLECULE
*****
 40 43 0 0 0
SMALL
GASTEIGER

@<TRIPOS>ATOM
      1 C         141.7885  142.3254  163.4685 C.3     1  UNL1        0.0822
      2 C         142.1865  142.3176  164.9148 C.ar    1  UNL1        0.0375
      3 C         141.3502  141.5812  165.9188 C.ar    1  UNL1        0.0023
      4 C         141.7482  141.5734  167.3651 C.ar    1  UNL1        0.0181
      5 C         140.9118  140.8370  168.3692 C.ar    1  UNL1        0.0082
      6 C         141.3098  140.8292  169.8153 C.ar    1  UNL1        0.0347
      7 BR        140.4734  140.0928  170.8195 Br      1  UNL1       -0.0490
      8 C         142.5442  141.5578  170.2574 C.ar    1  UNL1        0.0082
      9 C         143.3806  142.2942  169.2534 C.ar    1  UNL1        0.0197
     10 C         142.9825  142.3020  167.8072 C.ar    1  UNL1        0.0844
     11 N         143.8189  143.0384  166.8031 N.ar    1  UNL1       -0.2119
     12 C         143.4209  143.0462  165.3569 C.ar    1  UNL1        0.2211
     13 O         144.2573  143.7826  164.3527 O.3     1  UNL1       -0.4563
     14 C         144.0323  145.2471  164.1190 C.3     1  UNL1        0.2542
     15 C         141.0386  143.4951  162.9033 C.ar    1  UNL1        0.0375
     16 C         139.7412  143.9240  163.5220 C.ar    1  UNL1        0.0023
     17 C         138.9912  145.0936  162.9569 C.ar    1  UNL1        0.0206
     18 C         139.5386  145.8344  161.7729 C.ar    1  UNL1        0.1020
     19 N         140.8360  145.4055  161.1542 N.ar    1  UNL1       -0.2104
     20 C         141.5860  144.2358  161.7194 C.ar    1  UNL1        0.2211
     21 O         142.8834  143.8069  161.1007 O.3     1  UNL1       -0.4563
     22 C         142.9144  143.3279  159.6796 C.3     1  UNL1        0.2542
     23 C         142.1405  141.1636  162.5875 C.3     1  UNL1        0.1163
     24 O         143.5867  141.5575  162.6459 O.3     1  UNL1       -0.3820
     25 H         144.1131  140.9340  162.1213 H       1  UNL1        0.2107
     26 C         138.5441  139.9203  163.7143 C.ar    1  UNL1        0.2272
     27 C         139.9903  140.3142  163.7727 C.ar    1  UNL1        0.0559
     28 C         140.6943  140.7697  162.5291 C.ar    1  UNL1        0.0117
     29 C         139.9522  140.8314  161.2270 C.ar    1  UNL1        0.0559
     30 C         138.5060  140.4376  161.1686 C.ar    1  UNL1        0.2272
     31 N         137.8020  139.9820  162.4122 N.ar    1  UNL1       -0.1767
     32 C         138.6229  138.8520  166.0813 C.3     1  UNL1        0.2542
     33 O         137.8400  139.4648  164.9580 O.3     1  UNL1       -0.4561
     34 O         137.7639  140.4993  159.8664 O.3     1  UNL1       -0.4561
     35 C         138.5090  140.3650  158.5715 C.3     1  UNL1        0.2542
     36 C         142.4925  140.0018  161.7065 C.3     1  UNL1        0.0491
     37 C         143.2214  138.8215  162.2772 C.3     1  UNL1        0.0750
     38 N         143.5406  138.7738  163.7420 N.3     1  UNL1       -0.2702
     39 C         144.8626  139.2795  164.2385 C.3     1  UNL1        0.0897
     40 C         142.5377  138.2203  164.7105 C.3     1  UNL1        0.0897
@<TRIPOS>BOND
     1    32    33    1
     2    33    26    1
     3    26    27   ar
     4    27    28   ar
     5    28    23    1
     6    23    24    1
     7    23    36    1
     8    36    37    1
     9    37    38    1
    10    38    39    1
    11    38    40    1
    12    23     1    1
    13     1    15    1
    14    15    16   ar
    15    16    17   ar
    16    17    18   ar
    17    18    19   ar
    18    19    20   ar
    19    20    21    1
    20    21    22    1
    21     1     2    1
    22     2     3   ar
    23     3     4   ar
    24     4     5   ar
    25     5     6   ar
    26     6     7    1
    27     6     8   ar
    28     8     9   ar
    29     9    10   ar
    30    10    11   ar
    31    11    12   ar
    32    12    13    1
    33    13    14    1
    34    28    29   ar
    35    29    30   ar
    36    30    34    1
    37    34    35    1
    38    30    31   ar
    39    31    26   ar
    40    20    15   ar
    41    12     2   ar
    42    10     4   ar
    43    24    25    1
@<TRIPOS>MOLECULE
*****
 40 43 0 0 0
SMALL
GASTEIGER

@<TRIPOS>ATOM
      1 C         140.5248  142.2420  163.3495 C.3     1  UNL1        0.0822
      2 C         141.2722  142.2857  164.6494 C.ar    1  UNL1        0.0375
      3 C         140.5958  141.8582  165.9181 C.ar    1  UNL1        0.0023
      4 C         141.3431  141.9019  167.2180 C.ar    1  UNL1        0.0181
      5 C         140.6667  141.4744  168.4867 C.ar    1  UNL1        0.0082
      6 C         141.4140  141.5182  169.7865 C.ar    1  UNL1        0.0347
      7 BR        140.7376  141.0906  171.0553 Br      1  UNL1       -0.0490
      8 C         142.8377  141.9894  169.8176 C.ar    1  UNL1        0.0082
      9 C         143.5141  142.4170  168.5489 C.ar    1  UNL1        0.0197
     10 C         142.7668  142.3732  167.2491 C.ar    1  UNL1        0.0844
     11 N         143.4432  142.8008  165.9803 N.ar    1  UNL1       -0.2119
     12 C         142.6958  142.7570  164.6805 C.ar    1  UNL1        0.2211
     13 O         143.3722  143.1845  163.4117 O.3     1  UNL1       -0.4563
     14 C         144.7956  142.7896  163.1507 C.3     1  UNL1        0.2542
     15 C         140.3385  143.4967  162.5489 C.ar    1  UNL1        0.0375
     16 C         141.2147  143.7657  161.3615 C.ar    1  UNL1        0.0023
     17 C         141.0284  145.0204  160.5609 C.ar    1  UNL1        0.0206
     18 C         139.9659  146.0061  160.9477 C.ar    1  UNL1        0.1020
     19 N         139.0898  145.7371  162.1351 N.ar    1  UNL1       -0.2104
     20 C         139.2761  144.4823  162.9357 C.ar    1  UNL1        0.2211
     21 O         138.3999  144.2132  164.1231 O.3     1  UNL1       -0.4563
     22 C         138.6475  144.9322  165.4161 C.3     1  UNL1        0.2542
     23 C         139.9638  140.9435  162.8502 C.3     1  UNL1        0.1163
     24 O         138.5737  141.4464  163.1044 O.3     1  UNL1       -0.3820
     25 H         137.9320  140.7631  162.8548 H       1  UNL1        0.2107
     26 C         143.5219  139.2909  163.4494 C.ar    1  UNL1        0.2272
     27 C         142.1318  139.7937  163.7036 C.ar    1  UNL1        0.0559
     28 C         141.3540  140.4406  162.5961 C.ar    1  UNL1        0.0117
     29 C         141.9664  140.5846  161.2344 C.ar    1  UNL1        0.0559
     30 C         143.3565  140.0818  160.9802 C.ar    1  UNL1        0.2272
     31 N         144.1343  139.4349  162.0877 N.ar    1  UNL1       -0.1767
     32 C         143.6978  138.5249  165.9258 C.3     1  UNL1        0.2542
     33 O         144.2997  138.6440  164.5570 O.3     1  UNL1       -0.4561
     34 O         143.9689  140.2258  159.6185 O.3     1  UNL1       -0.4561
     35 C         143.1591  139.9135  158.3951 C.3     1  UNL1        0.2542
     36 C         139.4029  139.6450  162.3510 C.3     1  UNL1        0.0491
     37 C         138.4154  138.8844  163.1854 C.3     1  UNL1        0.0750
     38 N         138.7543  138.5168  164.5996 N.3     1  UNL1       -0.2702
     39 C         138.0865  139.2267  165.7398 C.3     1  UNL1        0.0897
     40 C         139.7611  137.4391  164.8737 C.3     1  UNL1        0.0897
@<TRIPOS>BOND
     1    32    33    1
     2    33    26    1
     3    26    27   ar
     4    27    28   ar
     5    28    23    1
     6    23    24    1
     7    23    36    1
     8    36    37    1
     9    37    38    1
    10    38    39    1
    11    38    40    1
    12    23     1    1
    13     1    15    1
    14    15    16   ar
    15    16    17   ar
    16    17    18   ar
    17    18    19   ar
    18    19    20   ar
    19    20    21    1
    20    21    22    1
    21     1     2    1
    22     2     3   ar
    23     3     4   ar
    24     4     5   ar
    25     5     6   ar
    26     6     7    1
    27     6     8   ar
    28     8     9   ar
    29     9    10   ar
    30    10    11   ar
    31    11    12   ar
    32    12    13    1
    33    13    14    1
    34    28    29   ar
    35    29    30   ar
    36    30    34    1
    37    34    35    1
    38    30    31   ar
    39    31    26   ar
    40    20    15   ar
    41    12     2   ar
    42    10     4   ar
    43    24    25    1
@<TRIPOS>MOLECULE
*****
 40 43 0 0 0
SMALL
GASTEIGER

@<TRIPOS>ATOM
      1 C         141.7278  141.7167  162.4088 C.3     1  UNL1        0.0822
      2 C         141.3628  142.0549  163.8240 C.ar    1  UNL1        0.0375
      3 C         142.3793  141.9053  164.9168 C.ar    1  UNL1        0.0023
      4 C         142.0143  142.2436  166.3320 C.ar    1  UNL1        0.0181
      5 C         143.0308  142.0940  167.4248 C.ar    1  UNL1        0.0082
      6 C         142.6658  142.4322  168.8399 C.ar    1  UNL1        0.0347
      7 BR        143.6823  142.2827  169.9329 Br      1  UNL1       -0.0490
      8 C         141.2844  142.9200  169.1620 C.ar    1  UNL1        0.0082
      9 C         140.2679  143.0696  168.0692 C.ar    1  UNL1        0.0197
     10 C         140.6329  142.7313  166.6541 C.ar    1  UNL1        0.0844
     11 N         139.6164  142.8809  165.5612 N.ar    1  UNL1       -0.2119
     12 C         139.9814  142.5427  164.1461 C.ar    1  UNL1        0.2211
     13 O         138.9649  142.6922  163.0532 O.3     1  UNL1       -0.4563
     14 C         137.8149  143.6401  163.2231 C.3     1  UNL1        0.2542
     15 C         141.5320  142.7307  161.3210 C.ar    1  UNL1        0.0375
     16 C         140.7981  142.3543  160.0681 C.ar    1  UNL1        0.0023
     17 C         140.6024  143.3683  158.9802 C.ar    1  UNL1        0.0206
     18 C         141.1405  144.7587  159.1453 C.ar    1  UNL1        0.1020
     19 N         141.8744  145.1351  160.3982 N.ar    1  UNL1       -0.2104
     20 C         142.0701  144.1210  161.4861 C.ar    1  UNL1        0.2211
     21 O         142.8040  144.4974  162.7390 O.3     1  UNL1       -0.4563
     22 C         144.2963  144.3611  162.8037 C.3     1  UNL1        0.2542
     23 C         142.2884  140.3644  162.0817 C.3     1  UNL1        0.1163
     24 O         143.6411  140.9767  161.8690 O.3     1  UNL1       -0.3820
     25 H         144.2746  140.2843  161.6237 H       1  UNL1        0.2107
     26 C         139.2920  138.3838  163.7694 C.ar    1  UNL1        0.2272
     27 C         140.6448  138.9961  163.5567 C.ar    1  UNL1        0.0559
     28 C         140.9357  139.7521  162.2943 C.ar    1  UNL1        0.0117
     29 C         139.8740  139.8957  161.2446 C.ar    1  UNL1        0.0559
     30 C         138.5213  139.2834  161.4572 C.ar    1  UNL1        0.2272
     31 N         138.2303  138.5274  162.7197 N.ar    1  UNL1       -0.1767
     32 C         138.2503  138.2920  166.1478 C.3     1  UNL1        0.2542
     33 O         139.0011  137.6277  165.0319 O.3     1  UNL1       -0.4561
     34 O         137.4595  139.4271  160.4074 O.3     1  UNL1       -0.4561
     35 C         137.7123  140.2752  159.1963 C.3     1  UNL1        0.2542
     36 C         142.8491  139.0122  161.7545 C.3     1  UNL1        0.0491
     37 C         143.8815  138.8693  160.6757 C.3     1  UNL1        0.0750
     38 N         143.4964  139.0619  159.2388 N.3     1  UNL1       -0.2702
     39 C         142.6737  138.0224  158.5370 C.3     1  UNL1        0.0897
     40 C         143.9339  140.2941  158.5038 C.3     1  UNL1        0.0897
@<TRIPOS>BOND
     1    32    33    1
     2    33    26    1
     3    26    27   ar
     4    27    28   ar
     5    28    23    1
     6    23    24    1
     7    23    36    1
     8    36    37    1
     9    37    38    1
    10    38    39    1
    11    38    40    1
    12    23     1    1
    13     1    15    1
    14    15    16   ar
    15    16    17   ar
    16    17    18   ar
    17    18    19   ar
    18    19    20   ar
    19    20    21    1
    20    21    22    1
    21     1     2    1
    22     2     3   ar
    23     3     4   ar
    24     4     5   ar
    25     5     6   ar
    26     6     7    1
    27     6     8   ar
    28     8     9   ar
    29     9    10   ar
    30    10    11   ar
    31    11    12   ar
    32    12    13    1
    33    13    14    1
    34    28    29   ar
    35    29    30   ar
    36    30    34    1
    37    34    35    1
    38    30    31   ar
    39    31    26   ar
    40    20    15   ar
    41    12     2   ar
    42    10     4   ar
    43    24    25    1
