@<TRIPOS>MOLECULE
*****
 31 33 0 0 0
SMALL
GASTEIGER

@<TRIPOS>ATOM
      1 N         138.8051  138.2047  163.4571 N.pl3   1  UNL1       -0.2820
      2 H         138.3740  137.3200  163.4860 H       1  UNL1        0.1551
      3 C         141.9167  138.9262  165.8125 C.ar    1  UNL1        0.0296
      4 C         141.1019  138.4505  164.6464 C.ar    1  UNL1        0.0406
      5 C         139.6198  138.6805  164.6233 C.ar    1  UNL1        0.1337
      6 N         138.9525  139.3862  165.7663 N.ar    1  UNL1       -0.2290
      7 C         139.7672  139.8619  166.9324 C.ar    1  UNL1        0.1008
      8 C         141.2493  139.6320  166.9555 C.ar    1  UNL1        0.0280
      9 C         142.0641  140.1078  168.1217 C.ar    1  UNL1        0.0416
     10 C         142.3400  139.3359  169.3779 C.ar    1  UNL1        0.1217
     11 N         143.1924  140.1901  170.2689 N.ar    1  UNL1       -0.1676
     12 N         143.4432  141.4898  169.5634 N.ar    1  UNL1       -0.2473
     13 C         144.2498  142.6387  170.0921 C.3     1  UNL1        0.1538
     14 C         142.7459  141.4389  168.2363 C.ar    1  UNL1        0.0967
     15 C         144.2519  139.1894  164.7047 C.3     1  UNL1        0.0742
     16 S         143.3987  138.6963  165.8355 S.3     1  UNL1       -0.1126
     17 C         138.6472  139.0768  162.2470 C.ar    1  UNL1        0.1558
     18 C         138.8725  138.5074  160.8776 C.ar    1  UNL1        0.1342
     19 N         138.7146  139.3795  159.6675 N.ar    1  UNL1       -0.2263
     20 C         138.3313  140.8210  159.8267 C.ar    1  UNL1        0.2025
     21 C         138.1060  141.3903  161.1960 C.ar    1  UNL1        0.2543
     22 N         138.2639  140.5182  162.4061 N.ar    1  UNL1       -0.1931
     23 C         138.1734  141.6931  158.6165 C.1     1  UNL1        0.1246
     24 N         138.0154  142.5652  157.4063 N.1     1  UNL1       -0.1891
     25 O         137.7227  142.8318  161.3552 O.3     1  UNL1       -0.4610
     26 C         138.4165  143.6840  162.3762 C.3     1  UNL1        0.1836
     27 C         137.6568  144.2033  163.5607 C.3     1  UNL1        0.0488
     28 C         139.8699  144.0169  162.2126 C.3     1  UNL1        0.1163
     29 N         140.8269  143.7727  163.3415 N.3     1  UNL1       -0.2673
     30 C         140.9269  142.4091  163.9584 C.3     1  UNL1        0.0898
     31 C         141.6839  144.8922  163.8537 C.3     1  UNL1        0.0898
@<TRIPOS>BOND
     1    15    16    1
     2    16     3    1
     3     3     4   ar
     4     4     5   ar
     5     5     1    1
     6     1    17    1
     7    17    18   ar
     8    18    19   ar
     9    19    20   ar
    10    20    23    1
    11    23    24    3
    12    20    21   ar
    13    21    25    1
    14    25    26    1
    15    26    27    1
    16    26    28    1
    17    28    29    1
    18    29    30    1
    19    29    31    1
    20    21    22   ar
    21     5     6   ar
    22     6     7   ar
    23     7     8   ar
    24     8     9    1
    25     9    10   ar
    26    10    11   ar
    27    11    12   ar
    28    12    13    1
    29    12    14   ar
    30     8     3   ar
    31    14     9   ar
    32    22    17   ar
    33     1     2    1
@<TRIPOS>MOLECULE
*****
 31 33 0 0 0
SMALL
GASTEIGER

@<TRIPOS>ATOM
      1 N         142.9954  138.9365  166.9609 N.pl3   1  UNL1       -0.2820
      2 H         143.4079  138.2143  167.4877 H       1  UNL1        0.1551
      3 C         141.6885  138.2244  163.2818 C.ar    1  UNL1        0.0296
      4 C         141.7292  138.3170  164.7784 C.ar    1  UNL1        0.0406
      5 C         142.9548  138.8440  165.4642 C.ar    1  UNL1        0.1337
      6 N         144.1396  139.2784  164.6535 N.ar    1  UNL1       -0.2290
      7 C         144.0990  139.1858  163.1569 C.ar    1  UNL1        0.1008
      8 C         142.8734  138.6588  162.4711 C.ar    1  UNL1        0.0280
      9 C         142.8328  138.5663  160.9745 C.ar    1  UNL1        0.0416
     10 C         143.1780  137.3575  160.1561 C.ar    1  UNL1        0.1217
     11 N         142.9984  137.7105  158.7094 N.ar    1  UNL1       -0.1676
     12 N         142.5421  139.1374  158.6335 N.ar    1  UNL1       -0.2473
     13 C         142.2410  139.9013  157.3782 C.3     1  UNL1        0.1538
     14 C         142.4398  139.6663  160.0334 C.ar    1  UNL1        0.0967
     15 C         139.1344  137.7490  163.2903 C.3     1  UNL1        0.0742
     16 S         140.4630  137.6975  162.5960 S.3     1  UNL1       -0.1126
     17 C         142.4075  140.1294  167.6547 C.ar    1  UNL1        0.1558
     18 C         142.6997  140.3724  169.1059 C.ar    1  UNL1        0.1342
     19 N         142.1118  141.5652  169.7997 N.ar    1  UNL1       -0.2263
     20 C         141.2317  142.5151  169.0425 C.ar    1  UNL1        0.2025
     21 C         140.9396  142.2721  167.5915 C.ar    1  UNL1        0.2543
     22 N         141.5275  141.0792  166.8976 N.ar    1  UNL1       -0.1931
     23 C         140.6439  143.7080  169.7364 C.1     1  UNL1        0.1246
     24 N         140.0560  144.9008  170.4303 N.1     1  UNL1       -0.1891
     25 O         140.0595  143.2219  166.8342 O.3     1  UNL1       -0.4610
     26 C         140.0421  143.1947  165.3346 C.3     1  UNL1        0.1836
     27 C         138.9397  142.4806  164.6103 C.3     1  UNL1        0.0488
     28 C         141.1271  143.8815  164.5594 C.3     1  UNL1        0.1163
     29 N         142.2724  143.0862  164.0065 N.3     1  UNL1       -0.2673
     30 C         143.5900  143.0707  164.7234 C.3     1  UNL1        0.0898
     31 C         142.1002  142.3063  162.7368 C.3     1  UNL1        0.0898
@<TRIPOS>BOND
     1    15    16    1
     2    16     3    1
     3     3     4   ar
     4     4     5   ar
     5     5     1    1
     6     1    17    1
     7    17    18   ar
     8    18    19   ar
     9    19    20   ar
    10    20    23    1
    11    23    24    3
    12    20    21   ar
    13    21    25    1
    14    25    26    1
    15    26    27    1
    16    26    28    1
    17    28    29    1
    18    29    30    1
    19    29    31    1
    20    21    22   ar
    21     5     6   ar
    22     6     7   ar
    23     7     8   ar
    24     8     9    1
    25     9    10   ar
    26    10    11   ar
    27    11    12   ar
    28    12    13    1
    29    12    14   ar
    30     8     3   ar
    31    14     9   ar
    32    22    17   ar
    33     1     2    1
@<TRIPOS>MOLECULE
*****
 31 33 0 0 0
SMALL
GASTEIGER

@<TRIPOS>ATOM
      1 N         142.8525  138.8225  166.7375 N.pl3   1  UNL1       -0.2820
      2 H         143.3369  138.1260  167.2369 H       1  UNL1        0.1551
      3 C         143.3328  139.3837  162.8382 C.ar    1  UNL1        0.0296
      4 C         143.5135  139.5130  164.3216 C.ar    1  UNL1        0.0406
      5 C         142.6717  138.6932  165.2540 C.ar    1  UNL1        0.1337
      6 N         141.6493  137.7441  164.7029 N.ar    1  UNL1       -0.2290
      7 C         141.4686  137.6148  163.2195 C.ar    1  UNL1        0.1008
      8 C         142.3104  138.4346  162.2871 C.ar    1  UNL1        0.0280
      9 C         142.1296  138.3053  160.8036 C.ar    1  UNL1        0.0416
     10 C         141.1251  139.0442  159.9700 C.ar    1  UNL1        0.1217
     11 N         141.2964  138.6100  158.5445 N.ar    1  UNL1       -0.1676
     12 N         142.4068  137.6026  158.4971 N.ar    1  UNL1       -0.2473
     13 C         142.9133  136.9059  157.2691 C.3     1  UNL1        0.1538
     14 C         142.9218  137.4143  159.8933 C.ar    1  UNL1        0.0967
     15 C         144.9823  141.3505  162.4369 C.3     1  UNL1        0.0742
     16 S         144.1746  140.2035  161.9058 S.3     1  UNL1       -0.1126
     17 C         142.2951  140.0131  167.4599 C.ar    1  UNL1        0.1558
     18 C         142.5749  140.2020  168.9215 C.ar    1  UNL1        0.1342
     19 N         142.0175  141.3926  169.6439 N.ar    1  UNL1       -0.2263
     20 C         141.1805  142.3942  168.9048 C.ar    1  UNL1        0.2025
     21 C         140.9007  142.2052  167.4433 C.ar    1  UNL1        0.2543
     22 N         141.4581  141.0146  166.7209 N.ar    1  UNL1       -0.1931
     23 C         140.6231  143.5847  169.6273 C.1     1  UNL1        0.1246
     24 N         140.0658  144.7753  170.3497 N.1     1  UNL1       -0.1891
     25 O         140.0636  143.2067  166.7042 O.3     1  UNL1       -0.4610
     26 C         139.8162  143.0386  165.2344 C.3     1  UNL1        0.1836
     27 C         140.9531  143.1616  164.2636 C.3     1  UNL1        0.0488
     28 C         138.4320  142.7474  164.7353 C.3     1  UNL1        0.1163
     29 N         138.0765  141.3653  164.2735 N.3     1  UNL1       -0.2673
     30 C         138.3087  140.1900  165.1762 C.3     1  UNL1        0.0898
     31 C         137.4888  141.1584  162.9090 C.3     1  UNL1        0.0898
@<TRIPOS>BOND
     1    15    16    1
     2    16     3    1
     3     3     4   ar
     4     4     5   ar
     5     5     1    1
     6     1    17    1
     7    17    18   ar
     8    18    19   ar
     9    19    20   ar
    10    20    23    1
    11    23    24    3
    12    20    21   ar
    13    21    25    1
    14    25    26    1
    15    26    27    1
    16    26    28    1
    17    28    29    1
    18    29    30    1
    19    29    31    1
    20    21    22   ar
    21     5     6   ar
    22     6     7   ar
    23     7     8   ar
    24     8     9    1
    25     9    10   ar
    26    10    11   ar
    27    11    12   ar
    28    12    13    1
    29    12    14   ar
    30     8     3   ar
    31    14     9   ar
    32    22    17   ar
    33     1     2    1
@<TRIPOS>MOLECULE
*****
 31 33 0 0 0
SMALL
GASTEIGER

@<TRIPOS>ATOM
      1 N         143.0010  138.8591  166.7252 N.pl3   1  UNL1       -0.2820
      2 H         143.4460  138.1406  167.2302 H       1  UNL1        0.1551
      3 C         141.5261  138.2655  163.0889 C.ar    1  UNL1        0.0296
      4 C         141.6218  138.3477  164.5835 C.ar    1  UNL1        0.0406
      5 C         142.9053  138.7768  165.2304 C.ar    1  UNL1        0.1337
      6 N         144.0931  139.1237  164.3827 N.ar    1  UNL1       -0.2290
      7 C         143.9974  139.0415  162.8880 C.ar    1  UNL1        0.1008
      8 C         142.7139  138.6124  162.2411 C.ar    1  UNL1        0.0280
      9 C         142.6182  138.5302  160.7464 C.ar    1  UNL1        0.0416
     10 C         142.1871  139.6353  159.8284 C.ar    1  UNL1        0.1217
     11 N         142.2393  139.1165  158.4219 N.ar    1  UNL1       -0.1676
     12 N         142.7028  137.6907  158.4707 N.ar    1  UNL1       -0.2473
     13 C         142.8978  136.7861  157.2902 C.3     1  UNL1        0.1538
     14 C         142.9369  137.3283  159.9073 C.ar    1  UNL1        0.0967
     15 C         139.0042  137.6684  163.2715 C.3     1  UNL1        0.0742
     16 S         140.2426  137.8364  162.4420 S.3     1  UNL1       -0.1126
     17 C         142.4186  140.0359  167.4503 C.ar    1  UNL1        0.1558
     18 C         142.6567  140.2029  168.9219 C.ar    1  UNL1        0.1342
     19 N         142.0743  141.3797  169.6471 N.ar    1  UNL1       -0.2263
     20 C         141.2539  142.3896  168.9007 C.ar    1  UNL1        0.2025
     21 C         141.0158  142.2226  167.4292 C.ar    1  UNL1        0.2543
     22 N         141.5982  141.0458  166.7040 N.ar    1  UNL1       -0.1931
     23 C         140.6715  143.5664  169.6259 C.1     1  UNL1        0.1246
     24 N         140.0891  144.7433  170.3511 N.1     1  UNL1       -0.1891
     25 O         140.1954  143.2325  166.6828 O.3     1  UNL1       -0.4610
     26 C         139.9985  143.0924  165.2024 C.3     1  UNL1        0.1836
     27 C         140.9764  143.7189  164.2532 C.3     1  UNL1        0.0488
     28 C         138.8237  142.3257  164.6713 C.3     1  UNL1        0.1163
     29 N         138.1506  142.7667  163.4054 N.3     1  UNL1       -0.2673
     30 C         137.9947  141.8053  162.2647 C.3     1  UNL1        0.0898
     31 C         137.6334  144.1692  163.2802 C.3     1  UNL1        0.0898
@<TRIPOS>BOND
     1    15    16    1
     2    16     3    1
     3     3     4   ar
     4     4     5   ar
     5     5     1    1
     6     1    17    1
     7    17    18   ar
     8    18    19   ar
     9    19    20   ar
    10    20    23    1
    11    23    24    3
    12    20    21   ar
    13    21    25    1
    14    25    26    1
    15    26    27    1
    16    26    28    1
    17    28    29    1
    18    29    30    1
    19    29    31    1
    20    21    22   ar
    21     5     6   ar
    22     6     7   ar
    23     7     8   ar
    24     8     9    1
    25     9    10   ar
    26    10    11   ar
    27    11    12   ar
    28    12    13    1
    29    12    14   ar
    30     8     3   ar
    31    14     9   ar
    32    22    17   ar
    33     1     2    1
@<TRIPOS>MOLECULE
*****
 31 33 0 0 0
SMALL
GASTEIGER

@<TRIPOS>ATOM
      1 N         138.8523  137.5622  164.1433 N.pl3   1  UNL1       -0.2820
      2 H         138.1803  136.8462  164.0726 H       1  UNL1        0.1551
      3 C         140.0769  139.1705  160.7281 C.ar    1  UNL1        0.0296
      4 C         139.2122  138.8343  161.9067 C.ar    1  UNL1        0.0406
      5 C         139.7171  137.8984  162.9646 C.ar    1  UNL1        0.1337
      6 N         141.0866  137.2986  162.8439 N.ar    1  UNL1       -0.2290
      7 C         141.9513  137.6348  161.6653 C.ar    1  UNL1        0.1008
      8 C         141.4465  138.5707  160.6074 C.ar    1  UNL1        0.0280
      9 C         142.3112  138.9069  159.4287 C.ar    1  UNL1        0.0416
     10 C         142.4811  138.0731  158.1934 C.ar    1  UNL1        0.1217
     11 N         143.4328  138.7868  157.2797 N.ar    1  UNL1       -0.1676
     12 N         143.8511  140.0618  157.9502 N.ar    1  UNL1       -0.2473
     13 C         144.7966  141.0831  157.3909 C.3     1  UNL1        0.1538
     14 C         143.1580  140.1360  159.2784 C.ar    1  UNL1        0.0967
     15 C         138.1020  140.1934  159.3853 C.3     1  UNL1        0.0742
     16 S         139.5721  140.1064  159.6702 S.3     1  UNL1       -0.1126
     17 C         139.0114  138.3170  165.4298 C.ar    1  UNL1        0.1558
     18 C         137.9366  138.2538  166.4743 C.ar    1  UNL1        0.1342
     19 N         138.0957  139.0086  167.7607 N.ar    1  UNL1       -0.2263
     20 C         139.3297  139.8265  168.0027 C.ar    1  UNL1        0.2025
     21 C         140.4044  139.8896  166.9583 C.ar    1  UNL1        0.2543
     22 N         140.2453  139.1348  165.6718 N.ar    1  UNL1       -0.1931
     23 C         139.4888  140.5813  169.2892 C.1     1  UNL1        0.1246
     24 N         139.6479  141.3361  170.5757 N.1     1  UNL1       -0.1891
     25 O         141.6383  140.7075  167.2003 O.3     1  UNL1       -0.4610
     26 C         141.7985  142.0397  166.5298 C.3     1  UNL1        0.1836
     27 C         143.1628  142.5200  166.1322 C.3     1  UNL1        0.0488
     28 C         140.5945  142.8916  166.2568 C.3     1  UNL1        0.1163
     29 N         140.2167  143.2256  164.8442 N.3     1  UNL1       -0.2673
     30 C         140.2924  142.1726  163.7786 C.3     1  UNL1        0.0898
     31 C         139.7631  144.6127  164.4970 C.3     1  UNL1        0.0898
@<TRIPOS>BOND
     1    15    16    1
     2    16     3    1
     3     3     4   ar
     4     4     5   ar
     5     5     1    1
     6     1    17    1
     7    17    18   ar
     8    18    19   ar
     9    19    20   ar
    10    20    23    1
    11    23    24    3
    12    20    21   ar
    13    21    25    1
    14    25    26    1
    15    26    27    1
    16    26    28    1
    17    28    29    1
    18    29    30    1
    19    29    31    1
    20    21    22   ar
    21     5     6   ar
    22     6     7   ar
    23     7     8   ar
    24     8     9    1
    25     9    10   ar
    26    10    11   ar
    27    11    12   ar
    28    12    13    1
    29    12    14   ar
    30     8     3   ar
    31    14     9   ar
    32    22    17   ar
    33     1     2    1
@<TRIPOS>MOLECULE
*****
 31 33 0 0 0
SMALL
GASTEIGER

@<TRIPOS>ATOM
      1 N         138.5194  139.1216  159.6486 N.pl3   1  UNL1       -0.2820
      2 H         137.6757  139.3273  159.1849 H       1  UNL1        0.1551
      3 C         138.2837  140.4761  163.3715 C.ar    1  UNL1        0.0296
      4 C         138.2203  140.4293  161.8736 C.ar    1  UNL1        0.0406
      5 C         138.5828  139.1684  161.1466 C.ar    1  UNL1        0.1337
      6 N         139.0086  137.9541  161.9175 N.ar    1  UNL1       -0.2290
      7 C         139.0720  138.0009  163.4154 C.ar    1  UNL1        0.1008
      8 C         138.7095  139.2619  164.1424 C.ar    1  UNL1        0.0280
      9 C         138.7729  139.3086  165.6403 C.ar    1  UNL1        0.0416
     10 C         137.7478  138.7530  166.5840 C.ar    1  UNL1        0.1217
     11 N         138.2139  139.0202  167.9844 N.ar    1  UNL1       -0.1676
     12 N         139.5270  139.7410  167.9064 N.ar    1  UNL1       -0.2473
     13 C         140.3502  140.2025  169.0724 C.3     1  UNL1        0.1538
     14 C         139.8725  139.9193  166.4577 C.ar    1  UNL1        0.0967
     15 C         138.9400  142.8249  164.2670 C.3     1  UNL1        0.0742
     16 S         137.9212  141.7371  164.0985 S.3     1  UNL1       -0.1126
     17 C         139.7417  138.7615  158.8571 C.ar    1  UNL1        0.1558
     18 C         139.6051  138.2877  157.4404 C.ar    1  UNL1        0.1342
     19 N         140.8274  137.9276  156.6489 N.ar    1  UNL1       -0.2263
     20 C         142.1862  138.0414  157.2741 C.ar    1  UNL1        0.2025
     21 C         142.3227  138.5152  158.6907 C.ar    1  UNL1        0.2543
     22 N         141.1004  138.8752  159.4822 N.ar    1  UNL1       -0.1931
     23 C         143.4084  137.6813  156.4826 C.1     1  UNL1        0.1246
     24 N         144.6307  137.3212  155.6912 N.1     1  UNL1       -0.1891
     25 O         143.6815  138.6289  159.3160 O.3     1  UNL1       -0.4610
     26 C         143.8535  139.3749  160.6058 C.3     1  UNL1        0.1836
     27 C         143.9162  140.8736  160.6028 C.3     1  UNL1        0.0488
     28 C         143.9628  138.6223  161.8987 C.3     1  UNL1        0.1163
     29 N         143.7778  139.3405  163.2025 N.3     1  UNL1       -0.2673
     30 C         144.9741  139.7508  164.0092 C.3     1  UNL1        0.0898
     31 C         142.3965  139.6484  163.6998 C.3     1  UNL1        0.0898
@<TRIPOS>BOND
     1    15    16    1
     2    16     3    1
     3     3     4   ar
     4     4     5   ar
     5     5     1    1
     6     1    17    1
     7    17    18   ar
     8    18    19   ar
     9    19    20   ar
    10    20    23    1
    11    23    24    3
    12    20    21   ar
    13    21    25    1
    14    25    26    1
    15    26    27    1
    16    26    28    1
    17    28    29    1
    18    29    30    1
    19    29    31    1
    20    21    22   ar
    21     5     6   ar
    22     6     7   ar
    23     7     8   ar
    24     8     9    1
    25     9    10   ar
    26    10    11   ar
    27    11    12   ar
    28    12    13    1
    29    12    14   ar
    30     8     3   ar
    31    14     9   ar
    32    22    17   ar
    33     1     2    1
@<TRIPOS>MOLECULE
*****
 31 33 0 0 0
SMALL
GASTEIGER

@<TRIPOS>ATOM
      1 N         137.4207  140.3623  162.9348 N.pl3   1  UNL1       -0.2820
      2 H         136.5049  140.7104  162.8383 H       1  UNL1        0.1551
      3 C         139.6190  141.4509  166.0546 C.ar    1  UNL1        0.0296
      4 C         138.9634  141.4734  164.7056 C.ar    1  UNL1        0.0406
      5 C         138.0763  140.3398  164.2838 C.ar    1  UNL1        0.1337
      6 N         137.8447  139.1837  165.2110 N.ar    1  UNL1       -0.2290
      7 C         138.5002  139.1612  166.5600 C.ar    1  UNL1        0.1008
      8 C         139.3874  140.2948  166.9817 C.ar    1  UNL1        0.0280
      9 C         140.0429  140.2722  168.3308 C.ar    1  UNL1        0.0416
     10 C         139.3738  140.5639  169.6412 C.ar    1  UNL1        0.1217
     11 N         140.4000  140.4260  170.7265 N.ar    1  UNL1       -0.1676
     12 N         141.7034  140.0490  170.0868 N.ar    1  UNL1       -0.2473
     13 C         142.9999  139.8092  170.8021 C.3     1  UNL1        0.1538
     14 C         141.4827  139.9540  168.6062 C.ar    1  UNL1        0.0967
     15 C         141.9147  142.6641  165.9668 C.3     1  UNL1        0.0742
     16 S         140.5061  142.5845  166.4763 S.3     1  UNL1       -0.1126
     17 C         138.1607  139.8547  161.7328 C.ar    1  UNL1        0.1558
     18 C         137.5985  140.0717  160.3591 C.ar    1  UNL1        0.1342
     19 N         138.3384  139.5640  159.1572 N.ar    1  UNL1       -0.2263
     20 C         139.6405  138.8393  159.3289 C.ar    1  UNL1        0.2025
     21 C         140.2026  138.6223  160.7025 C.ar    1  UNL1        0.2543
     22 N         139.4627  139.1300  161.9045 N.ar    1  UNL1       -0.1931
     23 C         140.3805  138.3316  158.1269 C.1     1  UNL1        0.1246
     24 N         141.1204  137.8239  156.9249 N.1     1  UNL1       -0.1891
     25 O         141.5047  137.8976  160.8742 O.3     1  UNL1       -0.4610
     26 C         142.7537  138.6648  161.1925 C.3     1  UNL1        0.1836
     27 C         143.1846  139.7968  160.3078 C.3     1  UNL1        0.0488
     28 C         143.5719  138.3000  162.3957 C.3     1  UNL1        0.1163
     29 N         143.5648  139.1876  163.6047 N.3     1  UNL1       -0.2673
     30 C         142.2960  139.3908  164.3786 C.3     1  UNL1        0.0898
     31 C         144.8266  139.8722  164.0401 C.3     1  UNL1        0.0898
@<TRIPOS>BOND
     1    15    16    1
     2    16     3    1
     3     3     4   ar
     4     4     5   ar
     5     5     1    1
     6     1    17    1
     7    17    18   ar
     8    18    19   ar
     9    19    20   ar
    10    20    23    1
    11    23    24    3
    12    20    21   ar
    13    21    25    1
    14    25    26    1
    15    26    27    1
    16    26    28    1
    17    28    29    1
    18    29    30    1
    19    29    31    1
    20    21    22   ar
    21     5     6   ar
    22     6     7   ar
    23     7     8   ar
    24     8     9    1
    25     9    10   ar
    26    10    11   ar
    27    11    12   ar
    28    12    13    1
    29    12    14   ar
    30     8     3   ar
    31    14     9   ar
    32    22    17   ar
    33     1     2    1
@<TRIPOS>MOLECULE
*****
 31 33 0 0 0
SMALL
GASTEIGER

@<TRIPOS>ATOM
      1 N         138.0147  142.6840  162.7082 N.pl3   1  UNL1       -0.2820
      2 H         137.0571  142.8905  162.6105 H       1  UNL1        0.1551
      3 C         138.7259  140.1545  165.6824 C.ar    1  UNL1        0.0296
      4 C         138.2073  140.7137  164.3908 C.ar    1  UNL1        0.0406
      5 C         138.5333  142.1247  163.9999 C.ar    1  UNL1        0.1337
      6 N         139.3779  142.9765  164.9005 N.ar    1  UNL1       -0.2290
      7 C         139.8965  142.4172  166.1921 C.ar    1  UNL1        0.1008
      8 C         139.5705  141.0062  166.5831 C.ar    1  UNL1        0.0280
      9 C         140.0891  140.4470  167.8747 C.ar    1  UNL1        0.0416
     10 C         139.3443  140.3964  169.1758 C.ar    1  UNL1        0.1217
     11 N         140.2385  139.7583  170.1972 N.ar    1  UNL1       -0.1676
     12 N         141.5359  139.4145  169.5274 N.ar    1  UNL1       -0.2473
     13 C         142.7181  138.7600  170.1787 C.3     1  UNL1        0.1538
     14 C         141.4436  139.8402  168.0921 C.ar    1  UNL1        0.0967
     15 C         138.8504  137.6028  165.2097 C.3     1  UNL1        0.0742
     16 S         138.3999  138.7435  166.0734 S.3     1  UNL1       -0.1126
     17 C         138.9551  142.9285  161.5655 C.ar    1  UNL1        0.1558
     18 C         138.5723  142.5109  160.1766 C.ar    1  UNL1        0.1342
     19 N         139.5127  142.7555  159.0339 N.ar    1  UNL1       -0.2263
     20 C         140.8360  143.4175  159.2801 C.ar    1  UNL1        0.2025
     21 C         141.2188  143.8351  160.6690 C.ar    1  UNL1        0.2543
     22 N         140.2784  143.5905  161.8117 N.ar    1  UNL1       -0.1931
     23 C         141.7765  143.6621  158.1374 C.1     1  UNL1        0.1246
     24 N         142.7169  143.9066  156.9947 N.1     1  UNL1       -0.1891
     25 O         142.5421  144.4972  160.9153 O.3     1  UNL1       -0.4610
     26 C         143.4119  144.0368  162.0473 C.3     1  UNL1        0.1836
     27 C         143.6342  144.9285  163.2328 C.3     1  UNL1        0.0488
     28 C         144.0595  142.6849  161.9938 C.3     1  UNL1        0.1163
     29 N         144.2554  141.8966  163.2548 N.3     1  UNL1       -0.2673
     30 C         145.6403  141.6328  163.7669 C.3     1  UNL1        0.0898
     31 C         143.0662  141.3722  164.0038 C.3     1  UNL1        0.0898
@<TRIPOS>BOND
     1    15    16    1
     2    16     3    1
     3     3     4   ar
     4     4     5   ar
     5     5     1    1
     6     1    17    1
     7    17    18   ar
     8    18    19   ar
     9    19    20   ar
    10    20    23    1
    11    23    24    3
    12    20    21   ar
    13    21    25    1
    14    25    26    1
    15    26    27    1
    16    26    28    1
    17    28    29    1
    18    29    30    1
    19    29    31    1
    20    21    22   ar
    21     5     6   ar
    22     6     7   ar
    23     7     8   ar
    24     8     9    1
    25     9    10   ar
    26    10    11   ar
    27    11    12   ar
    28    12    13    1
    29    12    14   ar
    30     8     3   ar
    31    14     9   ar
    32    22    17   ar
    33     1     2    1
@<TRIPOS>MOLECULE
*****
 31 33 0 0 0
SMALL
GASTEIGER

@<TRIPOS>ATOM
      1 N         142.2583  137.7808  162.2993 N.pl3   1  UNL1       -0.2820
      2 H         141.8694  136.8867  162.1631 H       1  UNL1        0.1551
      3 C         141.1207  139.3241  165.7741 C.ar    1  UNL1        0.0296
      4 C         141.0571  138.7358  164.3957 C.ar    1  UNL1        0.0406
      5 C         142.3220  138.3691  163.6777 C.ar    1  UNL1        0.1337
      6 N         143.6505  138.5906  164.3380 N.ar    1  UNL1       -0.2290
      7 C         143.7141  139.1788  165.7163 C.ar    1  UNL1        0.1008
      8 C         142.4492  139.5456  166.4343 C.ar    1  UNL1        0.0280
      9 C         142.5129  140.1339  167.8128 C.ar    1  UNL1        0.0416
     10 C         142.4448  139.3695  169.1016 C.ar    1  UNL1        0.1217
     11 N         142.5456  140.3531  170.2297 N.ar    1  UNL1       -0.1676
     12 N         142.6760  141.7253  169.6380 N.ar    1  UNL1       -0.2473
     13 C         142.8041  143.0078  170.4053 C.3     1  UNL1        0.1538
     14 C         142.6557  141.5898  168.1443 C.ar    1  UNL1        0.0967
     15 C         138.5611  139.7682  165.7387 C.3     1  UNL1        0.0742
     16 S         139.8558  139.6908  166.4921 S.3     1  UNL1       -0.1126
     17 C         142.7873  138.5548  161.1283 C.ar    1  UNL1        0.1558
     18 C         142.8194  137.9264  159.7666 C.ar    1  UNL1        0.1342
     19 N         143.3483  138.7004  158.5957 N.ar    1  UNL1       -0.2263
     20 C         143.8452  140.1029  158.7865 C.ar    1  UNL1        0.2025
     21 C         143.8130  140.7312  160.1481 C.ar    1  UNL1        0.2543
     22 N         143.2841  139.9572  161.3190 N.ar    1  UNL1       -0.1931
     23 C         144.3741  140.8769  157.6155 C.1     1  UNL1        0.1246
     24 N         144.9031  141.6509  156.4446 N.1     1  UNL1       -0.1891
     25 O         144.3099  142.1337  160.3388 O.3     1  UNL1       -0.4610
     26 C         143.6409  143.0379  161.3313 C.3     1  UNL1        0.1836
     27 C         142.1926  143.3914  161.1664 C.3     1  UNL1        0.0488
     28 C         144.4204  143.5885  162.4886 C.3     1  UNL1        0.1163
     29 N         144.7382  142.7120  163.6636 N.3     1  UNL1       -0.2673
     30 C         145.7527  141.6154  163.5287 C.3     1  UNL1        0.0898
     31 C         144.0415  142.9322  164.9737 C.3     1  UNL1        0.0898
@<TRIPOS>BOND
     1    15    16    1
     2    16     3    1
     3     3     4   ar
     4     4     5   ar
     5     5     1    1
     6     1    17    1
     7    17    18   ar
     8    18    19   ar
     9    19    20   ar
    10    20    23    1
    11    23    24    3
    12    20    21   ar
    13    21    25    1
    14    25    26    1
    15    26    27    1
    16    26    28    1
    17    28    29    1
    18    29    30    1
    19    29    31    1
    20    21    22   ar
    21     5     6   ar
    22     6     7   ar
    23     7     8   ar
    24     8     9    1
    25     9    10   ar
    26    10    11   ar
    27    11    12   ar
    28    12    13    1
    29    12    14   ar
    30     8     3   ar
    31    14     9   ar
    32    22    17   ar
    33     1     2    1
