@<TRIPOS>MOLECULE
*****
 37 41 0 0 0
SMALL
GASTEIGER

@<TRIPOS>ATOM
      1 C         142.0028  141.0410  168.4628 C.3     1  UNL1        0.0768
      2 N         142.6856  140.2464  167.3893 N.3     1  UNL1       -0.2724
      3 C         143.0326  138.7886  167.4570 C.3     1  UNL1        0.0721
      4 C         143.7028  138.4114  166.1692 C.3     1  UNL1        0.0187
      5 C         143.7701  139.6360  165.3055 C.3     1  UNL1        0.0178
      6 C         143.1414  140.7701  166.0596 C.3     1  UNL1        0.0721
      7 C         144.3620  139.7129  163.9295 C.3     1  UNL1        0.0077
      8 C         143.8593  138.8067  162.8451 C.3     1  UNL1        0.0459
      9 C         142.3895  138.7255  162.5568 C.ar    1  UNL1        0.0603
     10 C         141.5685  137.6199  163.1516 C.ar    1  UNL1        0.0145
     11 C         140.0987  137.5387  162.8634 C.ar    1  UNL1       -0.0003
     12 C         139.4498  138.5631  161.9804 C.ar    1  UNL1        0.0092
     13 C         140.2708  139.6686  161.3856 C.ar    1  UNL1        0.1240
     14 N         141.7406  139.7498  161.6739 N.ar    1  UNL1       -0.2356
     15 N         139.6219  140.6930  160.5027 N.pl3   1  UNL1       -0.3184
     16 C         138.1522  140.6118  160.2145 C.3     1  UNL1        0.0885
     17 C         137.3312  139.5062  160.8092 C.3     1  UNL1        0.0260
     18 C         137.9800  138.4818  161.6922 C.3     1  UNL1        0.0309
     19 H         140.1608  141.4186  160.1123 H       1  UNL1        0.1482
     20 C         140.5051  141.1152  168.5032 C.3     1  UNL1        0.0438
     21 C         138.7784  141.6654  164.9724 C.ar    1  UNL1        0.0191
     22 C         138.1123  140.3363  164.7724 C.ar    1  UNL1        0.0015
     23 C         138.2438  139.2669  165.8160 C.ar    1  UNL1       -0.0003
     24 C         139.0414  139.5266  167.0596 C.ar    1  UNL1       -0.0042
     25 C         139.7075  140.8556  167.2595 C.ar    1  UNL1       -0.0207
     26 C         139.5760  141.9250  166.2159 C.ar    1  UNL1       -0.0027
     27 C         139.7030  145.9504  162.0289 C.3     1  UNL1        0.0515
     28 C         139.0719  144.7044  162.5758 C.ar    1  UNL1        0.0535
     29 C         139.5847  143.8876  163.7247 C.ar    1  UNL1        0.0349
     30 C         138.6469  142.7348  163.9288 C.ar    1  UNL1        0.1018
     31 N         137.5546  142.8392  162.9061 N.ar    1  UNL1       -0.1730
     32 N         137.8173  144.0565  162.0699 N.ar    1  UNL1       -0.2798
     33 H         137.2634  144.3743  161.3206 H       1  UNL1        0.1886
     34 C         139.8051  141.4491  169.7871 C.3     1  UNL1        0.0474
     35 C         140.3294  142.5478  170.6635 C.2     1  UNL1        0.0507
     36 O         139.9430  143.9718  170.3931 O.co2   1  UNL1       -0.5492
     37 O         141.2400  142.2226  171.8102 O.co2   1  UNL1       -0.5492
@<TRIPOS>UNITY_ATOM_ATTR
36 1
charge -1
@<TRIPOS>BOND
     1    27    28    1
     2    28    29   ar
     3    29    30   ar
     4    30    21    1
     5    21    22   ar
     6    22    23   ar
     7    23    24   ar
     8    24    25   ar
     9    25    20    1
    10    20    34    1
    11    34    35    1
    12    35    36   ar
    13    35    37   ar
    14    20     1    1
    15     1     2    1
    16     2     3    1
    17     3     4    1
    18     4     5    1
    19     5     7    1
    20     7     8    1
    21     8     9    1
    22     9    10   ar
    23    10    11   ar
    24    11    12   ar
    25    12    13   ar
    26    13    14   ar
    27    13    15    1
    28    15    16    1
    29    16    17    1
    30    17    18    1
    31     5     6    1
    32    25    26   ar
    33    30    31   ar
    34    31    32   ar
    35    32    28   ar
    36    26    21   ar
    37     6     2    1
    38    14     9   ar
    39    18    12    1
    40    15    19    1
    41    32    33    1
@<TRIPOS>MOLECULE
*****
 37 41 0 0 0
SMALL
GASTEIGER

@<TRIPOS>ATOM
      1 C         139.8523  144.1351  164.8379 C.3     1  UNL1        0.0768
      2 N         141.3166  144.2090  164.5209 N.3     1  UNL1       -0.2724
      3 C         141.9913  145.2790  163.7148 C.3     1  UNL1        0.0721
      4 C         143.4549  144.9572  163.6500 C.3     1  UNL1        0.0187
      5 C         143.6848  143.6882  164.4160 C.3     1  UNL1        0.0178
      6 C         142.3633  143.2258  164.9543 C.3     1  UNL1        0.0721
      7 C         145.0045  143.0021  164.6098 C.3     1  UNL1        0.0077
      8 C         145.2551  141.6656  163.9766 C.3     1  UNL1        0.0459
      9 C         144.1846  140.6149  163.9942 C.ar    1  UNL1        0.0603
     10 C         144.0817  139.6684  165.1533 C.ar    1  UNL1        0.0145
     11 C         143.0114  138.6177  165.1709 C.ar    1  UNL1       -0.0003
     12 C         142.0438  138.5135  164.0293 C.ar    1  UNL1        0.0092
     13 C         142.1468  139.4599  162.8702 C.ar    1  UNL1        0.1240
     14 N         143.2172  140.5107  162.8526 N.ar    1  UNL1       -0.2356
     15 N         141.1793  139.3557  161.7287 N.pl3   1  UNL1       -0.3184
     16 C         140.1090  138.3050  161.7463 C.3     1  UNL1        0.0885
     17 C         140.0060  137.3586  162.9054 C.3     1  UNL1        0.0260
     18 C         140.9735  137.4628  164.0469 C.3     1  UNL1        0.0309
     19 H         141.2469  139.9769  160.9679 H       1  UNL1        0.1482
     20 C         139.0140  143.0345  164.2582 C.3     1  UNL1        0.0438
     21 C         139.4475  140.2231  167.0255 C.ar    1  UNL1        0.0191
     22 C         138.6482  139.1062  166.4225 C.ar    1  UNL1        0.0015
     23 C         137.9708  139.2987  165.0981 C.ar    1  UNL1       -0.0003
     24 C         138.0927  140.6081  164.3767 C.ar    1  UNL1       -0.0042
     25 C         138.8921  141.7251  164.9797 C.ar    1  UNL1       -0.0207
     26 C         139.5695  141.5325  166.3041 C.ar    1  UNL1       -0.0027
     27 C         143.1678  139.7930  170.7478 C.3     1  UNL1        0.0515
     28 C         141.8350  139.8329  170.0608 C.ar    1  UNL1        0.0535
     29 C         141.6034  140.0769  168.5991 C.ar    1  UNL1        0.0349
     30 C         140.1249  140.0306  168.3499 C.ar    1  UNL1        0.1018
     31 N         139.4428  139.7579  169.6577 N.ar    1  UNL1       -0.1730
     32 N         140.4997  139.6357  170.7151 N.ar    1  UNL1       -0.2798
     33 H         140.3443  139.4575  171.6708 H       1  UNL1        0.1886
     34 C         138.2977  143.2435  162.9570 C.3     1  UNL1        0.0474
     35 C         138.9936  142.9470  161.6616 C.2     1  UNL1        0.0507
     36 O         138.3025  143.2220  160.3589 O.co2   1  UNL1       -0.5492
     37 O         140.3804  142.3756  161.6690 O.co2   1  UNL1       -0.5492
@<TRIPOS>UNITY_ATOM_ATTR
36 1
charge -1
@<TRIPOS>BOND
     1    27    28    1
     2    28    29   ar
     3    29    30   ar
     4    30    21    1
     5    21    22   ar
     6    22    23   ar
     7    23    24   ar
     8    24    25   ar
     9    25    20    1
    10    20    34    1
    11    34    35    1
    12    35    36   ar
    13    35    37   ar
    14    20     1    1
    15     1     2    1
    16     2     3    1
    17     3     4    1
    18     4     5    1
    19     5     7    1
    20     7     8    1
    21     8     9    1
    22     9    10   ar
    23    10    11   ar
    24    11    12   ar
    25    12    13   ar
    26    13    14   ar
    27    13    15    1
    28    15    16    1
    29    16    17    1
    30    17    18    1
    31     5     6    1
    32    25    26   ar
    33    30    31   ar
    34    31    32   ar
    35    32    28   ar
    36    26    21   ar
    37     6     2    1
    38    14     9   ar
    39    18    12    1
    40    15    19    1
    41    32    33    1
@<TRIPOS>MOLECULE
*****
 37 41 0 0 0
SMALL
GASTEIGER

@<TRIPOS>ATOM
      1 C         138.2015  139.0377  163.2068 C.3     1  UNL1        0.0768
      2 N         138.0366  140.5270  163.1369 N.3     1  UNL1       -0.2724
      3 C         137.9869  141.3507  161.8842 C.3     1  UNL1        0.0721
      4 C         137.8120  142.7868  162.2805 C.3     1  UNL1        0.0187
      5 C         137.7535  142.8506  163.7780 C.3     1  UNL1        0.0178
      6 C         137.8923  141.4540  164.3072 C.3     1  UNL1        0.0721
      7 C         137.5856  144.0930  164.6016 C.3     1  UNL1        0.0077
      8 C         138.7739  144.7121  165.2757 C.3     1  UNL1        0.0459
      9 C         140.1219  144.0636  165.1639 C.ar    1  UNL1        0.0603
     10 C         140.5490  143.0421  166.1760 C.ar    1  UNL1        0.0145
     11 C         141.8969  142.3936  166.0643 C.ar    1  UNL1       -0.0003
     12 C         142.8179  142.7666  164.9404 C.ar    1  UNL1        0.0092
     13 C         142.3908  143.7880  163.9284 C.ar    1  UNL1        0.1240
     14 N         141.0428  144.4365  164.0402 N.ar    1  UNL1       -0.2356
     15 N         143.3116  144.1610  162.8046 N.pl3   1  UNL1       -0.3184
     16 C         144.6595  143.5125  162.6929 C.3     1  UNL1        0.0885
     17 C         145.0866  142.4911  163.7049 C.3     1  UNL1        0.0260
     18 C         144.1658  142.1181  164.8287 C.3     1  UNL1        0.0309
     19 H         143.0313  144.8314  162.1404 H       1  UNL1        0.1482
     20 C         139.1695  138.4353  164.1816 C.3     1  UNL1        0.0438
     21 C         142.6476  139.1814  162.4219 C.ar    1  UNL1        0.0191
     22 C         143.5977  138.9363  163.5565 C.ar    1  UNL1        0.0015
     23 C         143.0717  138.5242  164.8994 C.ar    1  UNL1       -0.0003
     24 C         141.5957  138.3572  165.1078 C.ar    1  UNL1       -0.0042
     25 C         140.6456  138.6023  163.9732 C.ar    1  UNL1       -0.0207
     26 C         141.1716  139.0144  162.6302 C.ar    1  UNL1       -0.0027
     27 C         144.1409  142.1261  158.3013 C.3     1  UNL1        0.0515
     28 C         143.8600  140.9470  159.1849 C.ar    1  UNL1        0.0535
     29 C         143.2837  140.9998  160.5688 C.ar    1  UNL1        0.0349
     30 C         143.1735  139.5934  161.0789 C.ar    1  UNL1        0.1018
     31 N         143.6817  138.6716  160.0103 N.ar    1  UNL1       -0.1730
     32 N         144.1059  139.5082  158.8397 N.ar    1  UNL1       -0.2798
     33 H         144.4801  139.1719  157.9934 H       1  UNL1        0.1886
     34 C         138.6614  137.6659  165.3647 C.3     1  UNL1        0.0474
     35 C         138.1782  138.3958  166.5828 C.2     1  UNL1        0.0507
     36 O         136.9934  137.8807  167.3451 O.co2   1  UNL1       -0.5492
     37 O         138.8797  139.6408  167.0386 O.co2   1  UNL1       -0.5492
@<TRIPOS>UNITY_ATOM_ATTR
36 1
charge -1
@<TRIPOS>BOND
     1    27    28    1
     2    28    29   ar
     3    29    30   ar
     4    30    21    1
     5    21    22   ar
     6    22    23   ar
     7    23    24   ar
     8    24    25   ar
     9    25    20    1
    10    20    34    1
    11    34    35    1
    12    35    36   ar
    13    35    37   ar
    14    20     1    1
    15     1     2    1
    16     2     3    1
    17     3     4    1
    18     4     5    1
    19     5     7    1
    20     7     8    1
    21     8     9    1
    22     9    10   ar
    23    10    11   ar
    24    11    12   ar
    25    12    13   ar
    26    13    14   ar
    27    13    15    1
    28    15    16    1
    29    16    17    1
    30    17    18    1
    31     5     6    1
    32    25    26   ar
    33    30    31   ar
    34    31    32   ar
    35    32    28   ar
    36    26    21   ar
    37     6     2    1
    38    14     9   ar
    39    18    12    1
    40    15    19    1
    41    32    33    1
@<TRIPOS>MOLECULE
*****
 37 41 0 0 0
SMALL
GASTEIGER

@<TRIPOS>ATOM
      1 C         141.7371  137.5679  163.7346 C.3     1  UNL1        0.0768
      2 N         142.7587  138.5525  163.2479 N.3     1  UNL1       -0.2724
      3 C         143.0209  138.9160  161.8163 C.3     1  UNL1        0.0721
      4 C         144.1217  139.9346  161.7909 C.3     1  UNL1        0.0187
      5 C         144.5398  140.2006  163.2066 C.3     1  UNL1        0.0178
      6 C         143.6974  139.3464  164.1071 C.3     1  UNL1        0.0721
      7 C         145.6121  141.1535  163.6450 C.3     1  UNL1        0.0077
      8 C         145.2410  142.4445  164.3126 C.3     1  UNL1        0.0459
      9 C         143.8747  143.0289  164.1084 C.ar    1  UNL1        0.0603
     10 C         142.8277  142.8777  165.1718 C.ar    1  UNL1        0.0145
     11 C         141.4614  143.4621  164.9676 C.ar    1  UNL1       -0.0003
     12 C         141.1420  144.1976  163.6999 C.ar    1  UNL1        0.0092
     13 C         142.1890  144.3487  162.6364 C.ar    1  UNL1        0.1240
     14 N         143.5554  143.7643  162.8407 N.ar    1  UNL1       -0.2356
     15 N         141.8697  145.0842  161.3687 N.pl3   1  UNL1       -0.3184
     16 C         140.5035  145.6685  161.1645 C.3     1  UNL1        0.0885
     17 C         139.4565  145.5174  162.2280 C.3     1  UNL1        0.0260
     18 C         139.7758  144.7820  163.4957 C.3     1  UNL1        0.0309
     19 H         142.5569  145.1834  160.6707 H       1  UNL1        0.1482
     20 C         140.3224  138.0086  163.9682 C.3     1  UNL1        0.0438
     21 C         140.5794  139.6339  167.5797 C.ar    1  UNL1        0.0191
     22 C         139.1295  139.7257  167.9531 C.ar    1  UNL1        0.0015
     23 C         138.0773  139.2451  166.9982 C.ar    1  UNL1       -0.0003
     24 C         138.4749  138.6728  165.6700 C.ar    1  UNL1       -0.0042
     25 C         139.9248  138.5810  165.2966 C.ar    1  UNL1       -0.0207
     26 C         140.9771  139.0615  166.2514 C.ar    1  UNL1       -0.0027
     27 C         144.2048  142.6492  169.9557 C.3     1  UNL1        0.0515
     28 C         143.2981  141.5005  169.6267 C.ar    1  UNL1        0.0535
     29 C         142.3265  141.4430  168.4854 C.ar    1  UNL1        0.0349
     30 C         141.6317  140.1144  168.5346 C.ar    1  UNL1        0.1018
     31 N         142.1740  139.3509  169.7063 N.ar    1  UNL1       -0.1730
     32 N         143.2039  140.2075  170.3812 N.ar    1  UNL1       -0.2798
     33 H         143.7263  139.9639  171.1793 H       1  UNL1        0.1886
     34 C         139.3054  137.8769  162.8736 C.3     1  UNL1        0.0474
     35 C         139.1592  138.9645  161.8509 C.2     1  UNL1        0.0507
     36 O         139.5978  138.7276  160.4361 O.co2   1  UNL1       -0.5492
     37 O         138.5743  140.2890  162.2429 O.co2   1  UNL1       -0.5492
@<TRIPOS>UNITY_ATOM_ATTR
36 1
charge -1
@<TRIPOS>BOND
     1    27    28    1
     2    28    29   ar
     3    29    30   ar
     4    30    21    1
     5    21    22   ar
     6    22    23   ar
     7    23    24   ar
     8    24    25   ar
     9    25    20    1
    10    20    34    1
    11    34    35    1
    12    35    36   ar
    13    35    37   ar
    14    20     1    1
    15     1     2    1
    16     2     3    1
    17     3     4    1
    18     4     5    1
    19     5     7    1
    20     7     8    1
    21     8     9    1
    22     9    10   ar
    23    10    11   ar
    24    11    12   ar
    25    12    13   ar
    26    13    14   ar
    27    13    15    1
    28    15    16    1
    29    16    17    1
    30    17    18    1
    31     5     6    1
    32    25    26   ar
    33    30    31   ar
    34    31    32   ar
    35    32    28   ar
    36    26    21   ar
    37     6     2    1
    38    14     9   ar
    39    18    12    1
    40    15    19    1
    41    32    33    1
@<TRIPOS>MOLECULE
*****
 37 41 0 0 0
SMALL
GASTEIGER

@<TRIPOS>ATOM
      1 C         142.2848  141.1580  168.0694 C.3     1  UNL1        0.0768
      2 N         142.8366  140.3673  166.9204 N.3     1  UNL1       -0.2724
      3 C         142.9621  138.8738  166.8574 C.3     1  UNL1        0.0721
      4 C         143.5629  138.5147  165.5307 C.3     1  UNL1        0.0187
      5 C         143.8087  139.7862  164.7738 C.3     1  UNL1        0.0178
      6 C         143.3598  140.9311  165.6327 C.3     1  UNL1        0.0721
      7 C         144.3996  139.8938  163.3993 C.3     1  UNL1        0.0077
      8 C         144.9089  141.2145  162.9033 C.3     1  UNL1        0.0459
      9 C         143.9921  142.1411  162.1609 C.ar    1  UNL1        0.0603
     10 C         144.0341  142.1964  160.6625 C.ar    1  UNL1        0.0145
     11 C         143.1173  143.1229  159.9202 C.ar    1  UNL1       -0.0003
     12 C         142.1585  143.9941  160.6763 C.ar    1  UNL1        0.0092
     13 C         142.1164  143.9388  162.1747 C.ar    1  UNL1        0.1240
     14 N         143.0333  143.0123  162.9170 N.ar    1  UNL1       -0.2356
     15 N         141.1576  144.8100  162.9307 N.pl3   1  UNL1       -0.3184
     16 C         140.2408  145.7365  162.1884 C.3     1  UNL1        0.0885
     17 C         140.2829  145.7918  160.6900 C.3     1  UNL1        0.0260
     18 C         141.2417  144.9206  159.9339 C.3     1  UNL1        0.0309
     19 H         141.1300  144.7737  163.9142 H       1  UNL1        0.1482
     20 C         140.8041  141.3612  168.1976 C.3     1  UNL1        0.0438
     21 C         138.6957  141.0419  164.8505 C.ar    1  UNL1        0.0191
     22 C         138.0274  139.7157  165.0618 C.ar    1  UNL1        0.0015
     23 C         138.2847  138.9380  166.3184 C.ar    1  UNL1       -0.0003
     24 C         139.2103  139.4865  167.3636 C.ar    1  UNL1       -0.0042
     25 C         139.8785  140.8127  167.1523 C.ar    1  UNL1       -0.0207
     26 C         139.6213  141.5904  165.8957 C.ar    1  UNL1       -0.0027
     27 C         138.6692  142.5365  159.7863 C.3     1  UNL1        0.0515
     28 C         138.4263  142.5066  161.2661 C.ar    1  UNL1        0.0535
     29 C         138.9081  141.4519  162.2176 C.ar    1  UNL1        0.0349
     30 C         138.4384  141.8196  163.5939 C.ar    1  UNL1        0.1018
     31 N         137.6664  143.1017  163.4930 N.ar    1  UNL1       -0.1730
     32 N         137.6588  143.5263  162.0543 N.ar    1  UNL1       -0.2798
     33 H         137.2262  144.3326  161.6912 H       1  UNL1        0.1886
     34 C         140.2490  142.1128  169.3710 C.3     1  UNL1        0.0474
     35 C         140.1369  141.4406  170.7073 C.2     1  UNL1        0.0507
     36 O         140.5599  142.1667  171.9499 O.co2   1  UNL1       -0.5492
     37 O         139.6018  140.0425  170.8010 O.co2   1  UNL1       -0.5492
@<TRIPOS>UNITY_ATOM_ATTR
36 1
charge -1
@<TRIPOS>BOND
     1    27    28    1
     2    28    29   ar
     3    29    30   ar
     4    30    21    1
     5    21    22   ar
     6    22    23   ar
     7    23    24   ar
     8    24    25   ar
     9    25    20    1
    10    20    34    1
    11    34    35    1
    12    35    36   ar
    13    35    37   ar
    14    20     1    1
    15     1     2    1
    16     2     3    1
    17     3     4    1
    18     4     5    1
    19     5     7    1
    20     7     8    1
    21     8     9    1
    22     9    10   ar
    23    10    11   ar
    24    11    12   ar
    25    12    13   ar
    26    13    14   ar
    27    13    15    1
    28    15    16    1
    29    16    17    1
    30    17    18    1
    31     5     6    1
    32    25    26   ar
    33    30    31   ar
    34    31    32   ar
    35    32    28   ar
    36    26    21   ar
    37     6     2    1
    38    14     9   ar
    39    18    12    1
    40    15    19    1
    41    32    33    1
@<TRIPOS>MOLECULE
*****
 37 41 0 0 0
SMALL
GASTEIGER

@<TRIPOS>ATOM
      1 C         144.4658  142.6631  163.1134 C.3     1  UNL1        0.0768
      2 N         143.3075  143.6149  163.1632 N.3     1  UNL1       -0.2724
      3 C         143.2680  144.9174  163.9062 C.3     1  UNL1        0.0721
      4 C         141.9215  145.5388  163.6810 C.3     1  UNL1        0.0187
      5 C         141.1288  144.6204  162.7988 C.3     1  UNL1        0.0178
      6 C         141.9855  143.4314  162.4788 C.3     1  UNL1        0.0721
      7 C         139.7259  144.8507  162.3205 C.3     1  UNL1        0.0077
      8 C         138.5781  144.1749  163.0102 C.3     1  UNL1        0.0459
      9 C         138.7701  142.8274  163.6408 C.ar    1  UNL1        0.0603
     10 C         139.1426  142.7238  165.0901 C.ar    1  UNL1        0.0145
     11 C         139.3347  141.3764  165.7206 C.ar    1  UNL1       -0.0003
     12 C         139.1542  140.1325  164.9019 C.ar    1  UNL1        0.0092
     13 C         138.7817  140.2362  163.4526 C.ar    1  UNL1        0.1240
     14 N         138.5897  141.5836  162.8220 N.ar    1  UNL1       -0.2356
     15 N         138.6013  138.9924  162.6338 N.pl3   1  UNL1       -0.3184
     16 C         138.7933  137.6450  163.2643 C.3     1  UNL1        0.0885
     17 C         139.1658  137.5414  164.7136 C.3     1  UNL1        0.0260
     18 C         139.3463  138.7852  165.5324 C.3     1  UNL1        0.0309
     19 H         138.3568  139.0604  161.6826 H       1  UNL1        0.1482
     20 C         144.2310  141.1881  163.2523 C.3     1  UNL1        0.0438
     21 C         142.8791  140.9903  166.9784 C.ar    1  UNL1        0.0191
     22 C         142.6998  139.5095  167.1367 C.ar    1  UNL1        0.0015
     23 C         143.0310  138.5882  166.0002 C.ar    1  UNL1       -0.0003
     24 C         143.5413  139.1477  164.7055 C.ar    1  UNL1       -0.0042
     25 C         143.7206  140.6285  164.5472 C.ar    1  UNL1       -0.0207
     26 C         143.3894  141.5498  165.6836 C.ar    1  UNL1       -0.0027
     27 C         140.2160  144.1244  170.2899 C.3     1  UNL1        0.0515
     28 C         141.3238  143.3522  169.6370 C.ar    1  UNL1        0.0535
     29 C         141.1971  142.4901  168.4161 C.ar    1  UNL1        0.0349
     30 C         142.5479  141.9116  168.1148 C.ar    1  UNL1        0.1018
     31 N         143.5095  142.4162  169.1496 N.ar    1  UNL1       -0.1730
     32 N         142.7529  143.3066  170.0904 N.ar    1  UNL1       -0.2798
     33 H         143.1284  143.7782  170.8687 H       1  UNL1        0.1886
     34 C         144.5065  140.2726  162.0965 C.3     1  UNL1        0.0474
     35 C         143.7155  140.4059  160.8290 C.2     1  UNL1        0.0507
     36 O         144.0215  141.5156  159.8671 O.co2   1  UNL1       -0.5492
     37 O         142.6185  139.4296  160.5233 O.co2   1  UNL1       -0.5492
@<TRIPOS>UNITY_ATOM_ATTR
36 1
charge -1
@<TRIPOS>BOND
     1    27    28    1
     2    28    29   ar
     3    29    30   ar
     4    30    21    1
     5    21    22   ar
     6    22    23   ar
     7    23    24   ar
     8    24    25   ar
     9    25    20    1
    10    20    34    1
    11    34    35    1
    12    35    36   ar
    13    35    37   ar
    14    20     1    1
    15     1     2    1
    16     2     3    1
    17     3     4    1
    18     4     5    1
    19     5     7    1
    20     7     8    1
    21     8     9    1
    22     9    10   ar
    23    10    11   ar
    24    11    12   ar
    25    12    13   ar
    26    13    14   ar
    27    13    15    1
    28    15    16    1
    29    16    17    1
    30    17    18    1
    31     5     6    1
    32    25    26   ar
    33    30    31   ar
    34    31    32   ar
    35    32    28   ar
    36    26    21   ar
    37     6     2    1
    38    14     9   ar
    39    18    12    1
    40    15    19    1
    41    32    33    1
@<TRIPOS>MOLECULE
*****
 37 41 0 0 0
SMALL
GASTEIGER

@<TRIPOS>ATOM
      1 C         142.5941  137.9534  162.7230 C.3     1  UNL1        0.0768
      2 N         142.0437  138.6537  161.5161 N.3     1  UNL1       -0.2724
      3 C         142.7454  139.7076  160.7117 C.3     1  UNL1        0.0721
      4 C         141.8303  140.1282  159.6001 C.3     1  UNL1        0.0187
      5 C         140.5631  139.3343  159.7174 C.3     1  UNL1        0.0178
      6 C         140.6950  138.4230  160.9015 C.3     1  UNL1        0.0721
      7 C         139.3730  139.4341  158.8099 C.3     1  UNL1        0.0077
      8 C         138.0928  140.0309  159.3148 C.3     1  UNL1        0.0459
      9 C         138.0672  140.7455  160.6334 C.ar    1  UNL1        0.0603
     10 C         137.6271  140.0208  161.8708 C.ar    1  UNL1        0.0145
     11 C         137.6015  140.7353  163.1894 C.ar    1  UNL1       -0.0003
     12 C         138.0161  142.1747  163.2707 C.ar    1  UNL1        0.0092
     13 C         138.4562  142.8994  162.0333 C.ar    1  UNL1        0.1240
     14 N         138.4818  142.1848  160.7147 N.ar    1  UNL1       -0.2356
     15 N         138.8708  144.3386  162.1146 N.pl3   1  UNL1       -0.3184
     16 C         138.8452  145.0532  163.4332 C.3     1  UNL1        0.0885
     17 C         138.4050  144.3284  164.6705 C.3     1  UNL1        0.0260
     18 C         137.9905  142.8892  164.5893 C.3     1  UNL1        0.0309
     19 H         139.1597  144.8143  161.3025 H       1  UNL1        0.1482
     20 C         142.5563  138.6267  164.0629 C.3     1  UNL1        0.0438
     21 C         139.8878  139.5897  166.8382 C.ar    1  UNL1        0.0191
     22 C         138.7193  138.7520  166.4106 C.ar    1  UNL1        0.0015
     23 C         138.8297  137.8726  165.2005 C.ar    1  UNL1       -0.0003
     24 C         140.1087  137.8309  164.4180 C.ar    1  UNL1       -0.0042
     25 C         141.2773  138.6685  164.8456 C.ar    1  UNL1       -0.0207
     26 C         141.1668  139.5479  166.0557 C.ar    1  UNL1       -0.0027
     27 C         140.3488  143.7048  170.1145 C.3     1  UNL1        0.0515
     28 C         139.9893  142.3606  169.5543 C.ar    1  UNL1        0.0535
     29 C         140.3303  141.8569  168.1831 C.ar    1  UNL1        0.0349
     30 C         139.7774  140.4691  168.0483 C.ar    1  UNL1        0.1018
     31 N         139.0946  140.1151  169.3362 N.ar    1  UNL1       -0.1730
     32 N         139.2256  141.2841  170.2669 N.ar    1  UNL1       -0.2798
     33 H         138.8723  141.3358  171.1844 H       1  UNL1        0.1886
     34 C         143.7976  139.2581  164.6202 C.3     1  UNL1        0.0474
     35 C         144.2426  140.6022  164.1248 C.2     1  UNL1        0.0507
     36 O         143.2261  141.6579  163.8050 O.co2   1  UNL1       -0.5492
     37 O         145.7041  140.8905  163.9492 O.co2   1  UNL1       -0.5492
@<TRIPOS>UNITY_ATOM_ATTR
36 1
charge -1
@<TRIPOS>BOND
     1    27    28    1
     2    28    29   ar
     3    29    30   ar
     4    30    21    1
     5    21    22   ar
     6    22    23   ar
     7    23    24   ar
     8    24    25   ar
     9    25    20    1
    10    20    34    1
    11    34    35    1
    12    35    36   ar
    13    35    37   ar
    14    20     1    1
    15     1     2    1
    16     2     3    1
    17     3     4    1
    18     4     5    1
    19     5     7    1
    20     7     8    1
    21     8     9    1
    22     9    10   ar
    23    10    11   ar
    24    11    12   ar
    25    12    13   ar
    26    13    14   ar
    27    13    15    1
    28    15    16    1
    29    16    17    1
    30    17    18    1
    31     5     6    1
    32    25    26   ar
    33    30    31   ar
    34    31    32   ar
    35    32    28   ar
    36    26    21   ar
    37     6     2    1
    38    14     9   ar
    39    18    12    1
    40    15    19    1
    41    32    33    1
@<TRIPOS>MOLECULE
*****
 37 41 0 0 0
SMALL
GASTEIGER

@<TRIPOS>ATOM
      1 C         139.1396  144.4874  163.2416 C.3     1  UNL1        0.0768
      2 N         138.5164  143.1353  163.0591 N.3     1  UNL1       -0.2724
      3 C         137.7277  142.3817  164.0888 C.3     1  UNL1        0.0721
      4 C         137.2962  141.0800  163.4810 C.3     1  UNL1        0.0187
      5 C         137.8182  141.0291  162.0757 C.3     1  UNL1        0.0178
      6 C         138.5723  142.2993  161.8150 C.3     1  UNL1        0.0721
      7 C         137.6208  139.9053  161.1021 C.3     1  UNL1        0.0077
      8 C         138.4274  138.6476  161.2348 C.3     1  UNL1        0.0459
      9 C         139.4799  138.5403  162.2982 C.ar    1  UNL1        0.0603
     10 C         139.2011  137.7691  163.5542 C.ar    1  UNL1        0.0145
     11 C         140.2535  137.6618  164.6176 C.ar    1  UNL1       -0.0003
     12 C         141.5848  138.3257  164.4251 C.ar    1  UNL1        0.0092
     13 C         141.8636  139.0969  163.1691 C.ar    1  UNL1        0.1240
     14 N         140.8111  139.2042  162.1056 N.ar    1  UNL1       -0.2356
     15 N         143.1948  139.7608  162.9765 N.pl3   1  UNL1       -0.3184
     16 C         144.2472  139.6535  164.0399 C.3     1  UNL1        0.0885
     17 C         143.9684  138.8823  165.2959 C.3     1  UNL1        0.0260
     18 C         142.6372  138.2184  165.4885 C.3     1  UNL1        0.0309
     19 H         143.3778  140.2669  162.1522 H       1  UNL1        0.1482
     20 C         140.5999  144.6843  162.9605 C.3     1  UNL1        0.0438
     21 C         142.2485  142.5029  165.8369 C.ar    1  UNL1        0.0191
     22 C         143.6813  142.9351  165.7346 C.ar    1  UNL1        0.0015
     23 C         144.0869  143.9503  164.7075 C.ar    1  UNL1       -0.0003
     24 C         143.0598  144.5334  163.7829 C.ar    1  UNL1       -0.0042
     25 C         141.6270  144.1012  163.8852 C.ar    1  UNL1       -0.0207
     26 C         141.2214  143.0860  164.9122 C.ar    1  UNL1       -0.0027
     27 C         142.3607  139.2225  169.9730 C.3     1  UNL1        0.0515
     28 C         141.8945  139.9799  168.7651 C.ar    1  UNL1        0.0535
     29 C         142.6979  140.9790  167.9865 C.ar    1  UNL1        0.0349
     30 C         141.8429  141.4877  166.8639 C.ar    1  UNL1        0.1018
     31 N         140.5111  140.8029  166.9487 N.ar    1  UNL1       -0.1730
     32 N         140.5429  139.8710  168.1237 N.ar    1  UNL1       -0.2798
     33 H         139.8061  139.2900  168.4216 H       1  UNL1        0.1886
     34 C         141.0329  145.4642  161.7546 C.3     1  UNL1        0.0474
     35 C         141.4532  144.7448  160.5073 C.2     1  UNL1        0.0507
     36 O         141.7580  145.5210  159.2603 O.co2   1  UNL1       -0.5492
     37 O         141.5688  143.2493  160.5068 O.co2   1  UNL1       -0.5492
@<TRIPOS>UNITY_ATOM_ATTR
36 1
charge -1
@<TRIPOS>BOND
     1    27    28    1
     2    28    29   ar
     3    29    30   ar
     4    30    21    1
     5    21    22   ar
     6    22    23   ar
     7    23    24   ar
     8    24    25   ar
     9    25    20    1
    10    20    34    1
    11    34    35    1
    12    35    36   ar
    13    35    37   ar
    14    20     1    1
    15     1     2    1
    16     2     3    1
    17     3     4    1
    18     4     5    1
    19     5     7    1
    20     7     8    1
    21     8     9    1
    22     9    10   ar
    23    10    11   ar
    24    11    12   ar
    25    12    13   ar
    26    13    14   ar
    27    13    15    1
    28    15    16    1
    29    16    17    1
    30    17    18    1
    31     5     6    1
    32    25    26   ar
    33    30    31   ar
    34    31    32   ar
    35    32    28   ar
    36    26    21   ar
    37     6     2    1
    38    14     9   ar
    39    18    12    1
    40    15    19    1
    41    32    33    1
@<TRIPOS>MOLECULE
*****
 37 41 0 0 0
SMALL
GASTEIGER

@<TRIPOS>ATOM
      1 C         143.4950  138.9841  166.3094 C.3     1  UNL1        0.0768
      2 N         143.8712  139.5264  164.9625 N.3     1  UNL1       -0.2724
      3 C         143.6451  138.8476  163.6440 C.3     1  UNL1        0.0721
      4 C         144.1737  139.7445  162.5642 C.3     1  UNL1        0.0187
      5 C         144.7264  140.9777  163.2151 C.3     1  UNL1        0.0178
      6 C         144.5395  140.8429  164.6973 C.3     1  UNL1        0.0721
      7 C         145.3556  142.1413  162.5080 C.3     1  UNL1        0.0077
      8 C         144.5009  143.0975  161.7302 C.3     1  UNL1        0.0459
      9 C         143.1772  143.5388  162.2809 C.ar    1  UNL1        0.0603
     10 C         143.1261  144.5084  163.4242 C.ar    1  UNL1        0.0145
     11 C         141.8025  144.9497  163.9748 C.ar    1  UNL1       -0.0003
     12 C         140.5298  144.4212  163.3822 C.ar    1  UNL1        0.0092
     13 C         140.5809  143.4515  162.2389 C.ar    1  UNL1        0.1240
     14 N         141.9046  143.0103  161.6882 N.ar    1  UNL1       -0.2356
     15 N         139.3083  142.9231  161.6462 N.pl3   1  UNL1       -0.3184
     16 C         137.9847  143.3643  162.1969 C.3     1  UNL1        0.0885
     17 C         137.9336  144.3340  163.3402 C.3     1  UNL1        0.0260
     18 C         139.2062  144.8624  163.9328 C.3     1  UNL1        0.0309
     19 H         139.3419  142.2867  160.8958 H       1  UNL1        0.1482
     20 C         142.4802  139.7009  167.1498 C.3     1  UNL1        0.0438
     21 C         139.0952  139.1064  165.1652 C.ar    1  UNL1        0.0191
     22 C         138.0920  139.2235  166.2742 C.ar    1  UNL1        0.0015
     23 C         138.5515  139.4997  167.6751 C.ar    1  UNL1       -0.0003
     24 C         140.0142  139.6588  167.9670 C.ar    1  UNL1       -0.0042
     25 C         141.0174  139.5417  166.8579 C.ar    1  UNL1       -0.0207
     26 C         140.5579  139.2655  165.4570 C.ar    1  UNL1       -0.0027
     27 C         137.2331  139.7675  160.2686 C.3     1  UNL1        0.0515
     28 C         137.7798  139.1341  161.5135 C.ar    1  UNL1        0.0535
     29 C         138.1248  139.8473  162.7872 C.ar    1  UNL1        0.0349
     30 C         138.6357  138.8302  163.7643 C.ar    1  UNL1        0.1018
     31 N         138.6064  137.4884  163.0944 N.ar    1  UNL1       -0.1730
     32 N         138.0774  137.6763  161.7034 N.ar    1  UNL1       -0.2798
     33 H         137.9482  136.9672  161.0327 H       1  UNL1        0.1886
     34 C         142.9280  140.5768  168.2822 C.3     1  UNL1        0.0474
     35 C         142.7757  142.0658  168.1841 C.2     1  UNL1        0.0507
     36 O         143.7528  142.8681  167.3768 O.co2   1  UNL1       -0.5492
     37 O         141.6464  142.7525  168.8934 O.co2   1  UNL1       -0.5492
@<TRIPOS>UNITY_ATOM_ATTR
36 1
charge -1
@<TRIPOS>BOND
     1    27    28    1
     2    28    29   ar
     3    29    30   ar
     4    30    21    1
     5    21    22   ar
     6    22    23   ar
     7    23    24   ar
     8    24    25   ar
     9    25    20    1
    10    20    34    1
    11    34    35    1
    12    35    36   ar
    13    35    37   ar
    14    20     1    1
    15     1     2    1
    16     2     3    1
    17     3     4    1
    18     4     5    1
    19     5     7    1
    20     7     8    1
    21     8     9    1
    22     9    10   ar
    23    10    11   ar
    24    11    12   ar
    25    12    13   ar
    26    13    14   ar
    27    13    15    1
    28    15    16    1
    29    16    17    1
    30    17    18    1
    31     5     6    1
    32    25    26   ar
    33    30    31   ar
    34    31    32   ar
    35    32    28   ar
    36    26    21   ar
    37     6     2    1
    38    14     9   ar
    39    18    12    1
    40    15    19    1
    41    32    33    1
