@<TRIPOS>MOLECULE
*****
 26 29 0 0 0
SMALL
GASTEIGER

@<TRIPOS>ATOM
      1 C         142.6359  140.1970  165.5407 C.ar    1  UNL1        0.0872
      2 C         142.3263  140.3993  166.9944 C.ar    1  UNL1        0.0508
      3 C         141.5089  141.5792  167.4300 C.ar    1  UNL1        0.1347
      4 N         141.0011  142.5568  166.4119 N.ar    1  UNL1       -0.2122
      5 C         141.3107  142.3545  164.9583 C.ar    1  UNL1        0.1597
      6 N         142.1281  141.1747  164.5227 N.ar    1  UNL1       -0.2293
      7 C         140.8029  143.3321  163.9402 C.2     1  UNL1        0.0197
      8 C         139.5709  144.1390  164.2245 C.2     1  UNL1        0.0007
      9 C         139.0630  145.1166  163.2064 C.2     1  UNL1        0.0202
     10 C         139.7874  145.2873  161.9041 C.2     1  UNL1        0.0969
     11 N         139.5255  146.1672  160.7178 N.2     1  UNL1       -0.2228
     12 C         140.5958  145.9041  159.7004 C.2     1  UNL1        0.1986
     13 N         141.5192  144.8617  160.2578 N.2     1  UNL1       -0.2265
     14 C         141.0195  144.4804  161.6198 C.2     1  UNL1        0.0828
     15 C         141.5273  143.5028  162.6378 C.3     1  UNL1        0.0768
     16 N         141.1993  141.7815  168.8838 N.pl3   1  UNL1       -0.2880
     17 C         141.8867  140.9436  169.9206 C.3     1  UNL1        0.1242
     18 C         141.5771  141.1459  171.3743 C.3     1  UNL1        0.1636
     19 O         140.5800  142.1861  171.7911 O.3     1  UNL1       -0.3501
     20 C         139.8925  143.0241  170.7542 C.3     1  UNL1        0.1636
     21 C         140.2022  142.8218  169.3004 C.3     1  UNL1        0.1242
     22 C         143.4533  139.0172  165.1051 C.3     1  UNL1        0.1963
     23 C         143.9378  138.5236  162.1860 C.3     1  UNL1        0.1765
     24 S         143.6956  138.7704  163.6455 S.O2    1  UNL1       -0.0025
     25 O         144.9765  139.5466  163.7270 O.2     1  UNL1       -0.1726
     26 O         142.4145  137.9942  163.5641 O.2     1  UNL1       -0.1726
@<TRIPOS>BOND
     1    23    24    1
     2    24    25    2
     3    24    26    2
     4    24    22    1
     5    22     1    1
     6     1     2   ar
     7     2     3   ar
     8     3    16    1
     9    16    17    1
    10    17    18    1
    11    18    19    1
    12    19    20    1
    13    20    21    1
    14     3     4   ar
    15     4     5   ar
    16     5     7    1
    17     7     8    2
    18     8     9    1
    19     9    10    2
    20    10    11    1
    21    11    12    2
    22    12    13    1
    23    13    14    2
    24    14    15    1
    25     5     6   ar
    26     6     1   ar
    27    21    16    1
    28    15     7    1
    29    14    10    1
@<TRIPOS>MOLECULE
*****
 26 29 0 0 0
SMALL
GASTEIGER

@<TRIPOS>ATOM
      1 C         142.7833  140.3331  163.0301 C.ar    1  UNL1        0.0872
      2 C         142.2917  141.3975  162.0945 C.ar    1  UNL1        0.0508
      3 C         141.3406  142.4478  162.5868 C.ar    1  UNL1        0.1347
      4 N         140.8812  142.4337  164.0147 N.ar    1  UNL1       -0.2122
      5 C         141.3729  141.3693  164.9502 C.ar    1  UNL1        0.1597
      6 N         142.3239  140.3190  164.4580 N.ar    1  UNL1       -0.2293
      7 C         140.9135  141.3553  166.3781 C.2     1  UNL1        0.0197
      8 C         140.5392  140.0588  167.0329 C.2     1  UNL1        0.0007
      9 C         140.0797  140.0447  168.4608 C.2     1  UNL1        0.0202
     10 C         139.9946  141.3274  169.2338 C.2     1  UNL1        0.0969
     11 N         139.5800  141.6233  170.6447 N.2     1  UNL1       -0.2228
     12 C         139.6980  143.1027  170.8618 C.2     1  UNL1        0.1986
     13 N         140.1857  143.7212  169.5852 N.2     1  UNL1       -0.2265
     14 C         140.3690  142.6240  168.5790 C.2     1  UNL1        0.0828
     15 C         140.8284  142.6379  167.1512 C.3     1  UNL1        0.0768
     16 N         140.8489  143.5123  161.6512 N.pl3   1  UNL1       -0.2880
     17 C         140.7635  143.2361  160.1794 C.3     1  UNL1        0.1242
     18 C         140.2718  144.3005  159.2439 C.3     1  UNL1        0.1636
     19 O         139.8656  145.6411  159.7801 O.3     1  UNL1       -0.3501
     20 C         139.9511  145.9174  161.2520 C.3     1  UNL1        0.1636
     21 C         140.4428  144.8529  162.1876 C.3     1  UNL1        0.1242
     22 C         143.7343  139.2828  162.5379 C.3     1  UNL1        0.1963
     23 C         142.9653  137.5251  160.2316 C.3     1  UNL1        0.1765
     24 S         143.3498  138.4039  161.3847 S.O2    1  UNL1       -0.0025
     25 O         142.2685  137.7830  162.2185 O.2     1  UNL1       -0.1726
     26 O         144.4311  139.0249  160.5508 O.2     1  UNL1       -0.1726
@<TRIPOS>BOND
     1    23    24    1
     2    24    25    2
     3    24    26    2
     4    24    22    1
     5    22     1    1
     6     1     2   ar
     7     2     3   ar
     8     3    16    1
     9    16    17    1
    10    17    18    1
    11    18    19    1
    12    19    20    1
    13    20    21    1
    14     3     4   ar
    15     4     5   ar
    16     5     7    1
    17     7     8    2
    18     8     9    1
    19     9    10    2
    20    10    11    1
    21    11    12    2
    22    12    13    1
    23    13    14    2
    24    14    15    1
    25     5     6   ar
    26     6     1   ar
    27    21    16    1
    28    15     7    1
    29    14    10    1
@<TRIPOS>MOLECULE
*****
 26 29 0 0 0
SMALL
GASTEIGER

@<TRIPOS>ATOM
      1 C         143.3800  140.6708  162.7005 C.ar    1  UNL1        0.0872
      2 C         142.6751  141.7493  161.9324 C.ar    1  UNL1        0.0508
      3 C         141.8105  142.7407  162.6533 C.ar    1  UNL1        0.1347
      4 N         141.6508  142.6537  164.1422 N.ar    1  UNL1       -0.2122
      5 C         142.3558  141.5753  164.9103 C.ar    1  UNL1        0.1597
      6 N         143.2203  140.5839  164.1895 N.ar    1  UNL1       -0.2293
      7 C         142.1961  141.4883  166.3993 C.2     1  UNL1        0.0197
      8 C         143.1289  142.2434  167.2990 C.2     1  UNL1        0.0007
      9 C         142.9692  142.1564  168.7880 C.2     1  UNL1        0.0202
     10 C         141.8767  141.3143  169.3772 C.2     1  UNL1        0.0969
     11 N         141.4773  141.0375  170.7963 N.2     1  UNL1       -0.2228
     12 C         140.2977  140.1113  170.7735 C.2     1  UNL1        0.1986
     13 N         139.9679  139.8157  169.3404 N.2     1  UNL1       -0.2265
     14 C         140.9438  140.5592  168.4774 C.2     1  UNL1        0.0828
     15 C         141.1035  140.6462  166.9884 C.3     1  UNL1        0.0768
     16 N         141.1055  143.8192  161.8851 N.pl3   1  UNL1       -0.2880
     17 C         140.4864  144.9757  162.6124 C.3     1  UNL1        0.1242
     18 C         139.7815  146.0542  161.8443 C.3     1  UNL1        0.1636
     19 O         139.6957  145.9761  160.3489 O.3     1  UNL1       -0.3501
     20 C         140.3148  144.8195  159.6215 C.3     1  UNL1        0.1636
     21 C         141.0198  143.7410  160.3896 C.3     1  UNL1        0.1242
     22 C         144.2445  139.6795  161.9798 C.3     1  UNL1        0.1963
     23 C         142.9880  137.5418  160.2912 C.3     1  UNL1        0.1765
     24 S         143.6162  138.6106  161.1354 S.O2    1  UNL1       -0.0025
     25 O         143.0800  137.9500  162.3708 O.2     1  UNL1       -0.1726
     26 O         144.1525  139.2712  159.9001 O.2     1  UNL1       -0.1726
@<TRIPOS>BOND
     1    23    24    1
     2    24    25    2
     3    24    26    2
     4    24    22    1
     5    22     1    1
     6     1     2   ar
     7     2     3   ar
     8     3    16    1
     9    16    17    1
    10    17    18    1
    11    18    19    1
    12    19    20    1
    13    20    21    1
    14     3     4   ar
    15     4     5   ar
    16     5     7    1
    17     7     8    2
    18     8     9    1
    19     9    10    2
    20    10    11    1
    21    11    12    2
    22    12    13    1
    23    13    14    2
    24    14    15    1
    25     5     6   ar
    26     6     1   ar
    27    21    16    1
    28    15     7    1
    29    14    10    1
@<TRIPOS>MOLECULE
*****
 26 29 0 0 0
SMALL
GASTEIGER

@<TRIPOS>ATOM
      1 C         139.9718  143.6439  164.7375 C.ar    1  UNL1        0.0872
      2 C         139.8601  143.3646  166.2070 C.ar    1  UNL1        0.0508
      3 C         140.4796  142.1264  166.7843 C.ar    1  UNL1        0.1347
      4 N         141.2109  141.1677  165.8920 N.ar    1  UNL1       -0.2122
      5 C         141.3226  141.4470  164.4225 C.ar    1  UNL1        0.1597
      6 N         140.7031  142.6851  163.8453 N.ar    1  UNL1       -0.2293
      7 C         142.0538  140.4882  163.5303 C.2     1  UNL1        0.0197
      8 C         143.4275  140.0153  163.9035 C.2     1  UNL1        0.0007
      9 C         144.1587  139.0564  163.0112 C.2     1  UNL1        0.0202
     10 C         143.5162  138.5706  161.7459 C.2     1  UNL1        0.0969
     11 N         143.9894  137.6312  160.6765 N.2     1  UNL1       -0.2228
     12 C         142.9082  137.5236  159.6424 C.2     1  UNL1        0.1986
     13 N         141.7667  138.3965  160.0727 N.2     1  UNL1       -0.2265
     14 C         142.1425  139.0436  161.3728 C.2     1  UNL1        0.0828
     15 C         141.4113  140.0024  162.2650 C.3     1  UNL1        0.0768
     16 N         140.3679  141.8471  168.2539 N.pl3   1  UNL1       -0.2880
     17 C         140.3715  142.9813  169.2353 C.3     1  UNL1        0.1242
     18 C         140.2597  142.7020  170.7048 C.3     1  UNL1        0.1636
     19 O         140.1445  141.2883  171.1928 O.3     1  UNL1       -0.3501
     20 C         140.1409  140.1539  170.2114 C.3     1  UNL1        0.1636
     21 C         140.2527  140.4333  168.7418 C.3     1  UNL1        0.1242
     22 C         139.3524  144.8820  164.1602 C.3     1  UNL1        0.1963
     23 C         140.0083  145.7197  161.3552 C.3     1  UNL1        0.1765
     24 S         139.6803  145.3008  162.7577 S.O2    1  UNL1       -0.0025
     25 O         141.0553  145.7055  163.2001 O.2     1  UNL1       -0.1726
     26 O         138.3053  144.8961  162.3153 O.2     1  UNL1       -0.1726
@<TRIPOS>BOND
     1    23    24    1
     2    24    25    2
     3    24    26    2
     4    24    22    1
     5    22     1    1
     6     1     2   ar
     7     2     3   ar
     8     3    16    1
     9    16    17    1
    10    17    18    1
    11    18    19    1
    12    19    20    1
    13    20    21    1
    14     3     4   ar
    15     4     5   ar
    16     5     7    1
    17     7     8    2
    18     8     9    1
    19     9    10    2
    20    10    11    1
    21    11    12    2
    22    12    13    1
    23    13    14    2
    24    14    15    1
    25     5     6   ar
    26     6     1   ar
    27    21    16    1
    28    15     7    1
    29    14    10    1
@<TRIPOS>MOLECULE
*****
 26 29 0 0 0
SMALL
GASTEIGER

@<TRIPOS>ATOM
      1 C         141.2723  143.4397  162.7006 C.ar    1  UNL1        0.0872
      2 C         141.7385  142.2609  161.8988 C.ar    1  UNL1        0.0508
      3 C         141.8319  140.9078  162.5394 C.ar    1  UNL1        0.1347
      4 N         141.4591  140.7335  163.9818 N.ar    1  UNL1       -0.2122
      5 C         140.9928  141.9124  164.7836 C.ar    1  UNL1        0.1597
      6 N         140.8994  143.2654  164.1430 N.ar    1  UNL1       -0.2293
      7 C         140.6199  141.7380  166.2261 C.2     1  UNL1        0.0197
      8 C         140.2703  140.3772  166.7512 C.2     1  UNL1        0.0007
      9 C         139.8974  140.2029  168.1937 C.2     1  UNL1        0.0202
     10 C         139.8742  141.3895  169.1109 C.2     1  UNL1        0.0969
     11 N         139.5487  141.5248  170.5689 N.2     1  UNL1       -0.2228
     12 C         139.6972  142.9693  170.9449 C.2     1  UNL1        0.1986
     13 N         140.1145  143.7268  169.7192 N.2     1  UNL1       -0.2265
     14 C         140.2239  142.7504  168.5858 C.2     1  UNL1        0.0828
     15 C         140.5968  142.9246  167.1434 C.3     1  UNL1        0.0768
     16 N         142.2982  139.7289  161.7375 N.pl3   1  UNL1       -0.2880
     17 C         143.5351  138.9855  162.1466 C.3     1  UNL1        0.1242
     18 C         144.0014  137.8067  161.3448 C.3     1  UNL1        0.1636
     19 O         143.2307  137.3712  160.1339 O.3     1  UNL1       -0.3501
     20 C         141.9937  138.1145  159.7248 C.3     1  UNL1        0.1636
     21 C         141.5274  139.2935  160.5266 C.3     1  UNL1        0.1242
     22 C         141.1789  144.7928  162.0600 C.3     1  UNL1        0.1963
     23 C         140.1576  145.0556  159.2515 C.3     1  UNL1        0.1765
     24 S         140.6682  144.9242  160.6557 S.O2    1  UNL1       -0.0025
     25 O         139.2581  144.8467  161.1613 O.2     1  UNL1       -0.1726
     26 O         142.0784  145.0016  160.1501 O.2     1  UNL1       -0.1726
@<TRIPOS>BOND
     1    23    24    1
     2    24    25    2
     3    24    26    2
     4    24    22    1
     5    22     1    1
     6     1     2   ar
     7     2     3   ar
     8     3    16    1
     9    16    17    1
    10    17    18    1
    11    18    19    1
    12    19    20    1
    13    20    21    1
    14     3     4   ar
    15     4     5   ar
    16     5     7    1
    17     7     8    2
    18     8     9    1
    19     9    10    2
    20    10    11    1
    21    11    12    2
    22    12    13    1
    23    13    14    2
    24    14    15    1
    25     5     6   ar
    26     6     1   ar
    27    21    16    1
    28    15     7    1
    29    14    10    1
@<TRIPOS>MOLECULE
*****
 26 29 0 0 0
SMALL
GASTEIGER

@<TRIPOS>ATOM
      1 C         140.7958  139.8229  163.0937 C.ar    1  UNL1        0.0872
      2 C         140.6091  141.0058  162.1905 C.ar    1  UNL1        0.0508
      3 C         140.3862  142.3687  162.7760 C.ar    1  UNL1        0.1347
      4 N         140.3500  142.5487  164.2647 N.ar    1  UNL1       -0.2122
      5 C         140.5368  141.3657  165.1679 C.ar    1  UNL1        0.1597
      6 N         140.7596  140.0029  164.5825 N.ar    1  UNL1       -0.2293
      7 C         140.5006  141.5458  166.6567 C.2     1  UNL1        0.0197
      8 C         140.4350  142.9243  167.2441 C.2     1  UNL1        0.0007
      9 C         140.3989  143.1043  168.7329 C.2     1  UNL1        0.0202
     10 C         140.4283  141.9057  169.6341 C.2     1  UNL1        0.0969
     11 N         140.4043  141.7724  171.1280 N.2     1  UNL1       -0.2228
     12 C         140.4551  140.3113  171.4638 C.2     1  UNL1        0.1986
     13 N         140.5104  139.5417  170.1775 N.2     1  UNL1       -0.2265
     14 C         140.4938  140.5270  169.0467 C.2     1  UNL1        0.0828
     15 C         140.5300  140.3471  167.5580 C.3     1  UNL1        0.0768
     16 N         140.1994  143.5517  161.8728 N.pl3   1  UNL1       -0.2880
     17 C         140.2713  143.3778  160.3847 C.3     1  UNL1        0.1242
     18 C         140.0845  144.5608  159.4815 C.3     1  UNL1        0.1636
     19 O         139.8259  145.9176  160.0664 O.3     1  UNL1       -0.3501
     20 C         139.7540  146.0915  161.5546 C.3     1  UNL1        0.1636
     21 C         139.9408  144.9085  162.4578 C.3     1  UNL1        0.1242
     22 C         141.0187  138.4600  162.5082 C.3     1  UNL1        0.1963
     23 C         143.5646  137.8558  161.0409 C.3     1  UNL1        0.1765
     24 S         142.2917  138.1579  161.7745 S.O2    1  UNL1       -0.0025
     25 O         141.5360  138.1190  160.4794 O.2     1  UNL1       -0.1726
     26 O         143.0474  138.1968  163.0697 O.2     1  UNL1       -0.1726
@<TRIPOS>BOND
     1    23    24    1
     2    24    25    2
     3    24    26    2
     4    24    22    1
     5    22     1    1
     6     1     2   ar
     7     2     3   ar
     8     3    16    1
     9    16    17    1
    10    17    18    1
    11    18    19    1
    12    19    20    1
    13    20    21    1
    14     3     4   ar
    15     4     5   ar
    16     5     7    1
    17     7     8    2
    18     8     9    1
    19     9    10    2
    20    10    11    1
    21    11    12    2
    22    12    13    1
    23    13    14    2
    24    14    15    1
    25     5     6   ar
    26     6     1   ar
    27    21    16    1
    28    15     7    1
    29    14    10    1
@<TRIPOS>MOLECULE
*****
 26 29 0 0 0
SMALL
GASTEIGER

@<TRIPOS>ATOM
      1 C         143.3581  142.0677  165.5635 C.ar    1  UNL1        0.0872
      2 C         143.0078  142.2336  167.0125 C.ar    1  UNL1        0.0508
      3 C         141.7080  141.6982  167.5359 C.ar    1  UNL1        0.1347
      4 N         140.7586  140.9968  166.6103 N.ar    1  UNL1       -0.2122
      5 C         141.1090  140.8310  165.1613 C.ar    1  UNL1        0.1597
      6 N         142.4087  141.3664  164.6379 N.ar    1  UNL1       -0.2293
      7 C         140.1595  140.1296  164.2356 C.2     1  UNL1        0.0197
      8 C         139.8142  138.6884  164.4665 C.2     1  UNL1        0.0007
      9 C         138.8647  137.9870  163.5409 C.2     1  UNL1        0.0202
     10 C         138.2606  138.7271  162.3844 C.2     1  UNL1        0.0969
     11 N         137.3009  138.3030  161.3125 N.2     1  UNL1       -0.2228
     12 C         137.0531  139.4822  160.4192 C.2     1  UNL1        0.1986
     13 N         137.8597  140.6351  160.9390 N.2     1  UNL1       -0.2265
     14 C         138.6060  140.1684  162.1536 C.2     1  UNL1        0.0828
     15 C         139.5554  140.8697  163.0792 C.3     1  UNL1        0.0768
     16 N         141.3576  141.8640  168.9851 N.pl3   1  UNL1       -0.2880
     17 C         140.2891  142.8349  169.3919 C.3     1  UNL1        0.1242
     18 C         139.9387  143.0008  170.8409 C.3     1  UNL1        0.1636
     19 O         140.6570  142.1958  171.8831 O.3     1  UNL1       -0.3501
     20 C         141.7255  141.2249  171.4763 C.3     1  UNL1        0.1636
     21 C         142.0759  141.0590  170.0271 C.3     1  UNL1        0.1242
     22 C         144.6578  142.6031  165.0401 C.3     1  UNL1        0.1963
     23 C         145.3776  142.2341  162.1512 C.3     1  UNL1        0.1765
     24 S         145.0177  142.4186  163.5956 S.O2    1  UNL1       -0.0025
     25 O         144.2886  143.6837  163.2524 O.2     1  UNL1       -0.1726
     26 O         145.7469  141.1534  163.9389 O.2     1  UNL1       -0.1726
@<TRIPOS>BOND
     1    23    24    1
     2    24    25    2
     3    24    26    2
     4    24    22    1
     5    22     1    1
     6     1     2   ar
     7     2     3   ar
     8     3    16    1
     9    16    17    1
    10    17    18    1
    11    18    19    1
    12    19    20    1
    13    20    21    1
    14     3     4   ar
    15     4     5   ar
    16     5     7    1
    17     7     8    2
    18     8     9    1
    19     9    10    2
    20    10    11    1
    21    11    12    2
    22    12    13    1
    23    13    14    2
    24    14    15    1
    25     5     6   ar
    26     6     1   ar
    27    21    16    1
    28    15     7    1
    29    14    10    1
@<TRIPOS>MOLECULE
*****
 26 29 0 0 0
SMALL
GASTEIGER

@<TRIPOS>ATOM
      1 C         141.1182  139.9145  163.2164 C.ar    1  UNL1        0.0872
      2 C         140.8052  141.0740  162.3178 C.ar    1  UNL1        0.0508
      3 C         140.7275  142.4613  162.8831 C.ar    1  UNL1        0.1347
      4 N         140.9628  142.6890  164.3469 N.ar    1  UNL1       -0.2122
      5 C         141.2758  141.5295  165.2454 C.ar    1  UNL1        0.1597
      6 N         141.3536  140.1423  164.6803 N.ar    1  UNL1       -0.2293
      7 C         141.5112  141.7573  166.7093 C.2     1  UNL1        0.0197
      8 C         142.8845  142.1033  167.2032 C.2     1  UNL1        0.0007
      9 C         143.1199  142.3311  168.6671 C.2     1  UNL1        0.0202
     10 C         141.9817  142.2128  169.6369 C.2     1  UNL1        0.0969
     11 N         141.9104  142.3799  171.1259 N.2     1  UNL1       -0.2228
     12 C         140.4929  142.1371  171.5521 C.2     1  UNL1        0.1986
     13 N         139.6881  141.8200  170.3266 N.2     1  UNL1       -0.2265
     14 C         140.6083  141.8668  169.1430 C.2     1  UNL1        0.0828
     15 C         140.3730  141.6390  167.6792 C.3     1  UNL1        0.0768
     16 N         140.4144  143.6209  161.9844 N.pl3   1  UNL1       -0.2880
     17 C         140.0665  144.9549  162.5752 C.3     1  UNL1        0.1242
     18 C         139.7534  146.1145  161.6766 C.3     1  UNL1        0.1636
     19 O         139.7883  145.9399  160.1872 O.3     1  UNL1       -0.3501
     20 C         140.1363  144.6057  159.5964 C.3     1  UNL1        0.1636
     21 C         140.4493  143.4461  160.4950 C.3     1  UNL1        0.1242
     22 C         141.1959  138.5273  162.6512 C.3     1  UNL1        0.1963
     23 C         143.3210  137.8404  160.6482 C.3     1  UNL1        0.1765
     24 S         142.2585  138.1839  161.6497 S.O2    1  UNL1       -0.0025
     25 O         141.2263  138.1640  160.5615 O.2     1  UNL1       -0.1726
     26 O         143.2907  138.2037  162.7379 O.2     1  UNL1       -0.1726
@<TRIPOS>BOND
     1    23    24    1
     2    24    25    2
     3    24    26    2
     4    24    22    1
     5    22     1    1
     6     1     2   ar
     7     2     3   ar
     8     3    16    1
     9    16    17    1
    10    17    18    1
    11    18    19    1
    12    19    20    1
    13    20    21    1
    14     3     4   ar
    15     4     5   ar
    16     5     7    1
    17     7     8    2
    18     8     9    1
    19     9    10    2
    20    10    11    1
    21    11    12    2
    22    12    13    1
    23    13    14    2
    24    14    15    1
    25     5     6   ar
    26     6     1   ar
    27    21    16    1
    28    15     7    1
    29    14    10    1
@<TRIPOS>MOLECULE
*****
 26 29 0 0 0
SMALL
GASTEIGER

@<TRIPOS>ATOM
      1 C         139.0390  140.0949  163.6130 C.ar    1  UNL1        0.0872
      2 C         139.2655  141.2514  162.6850 C.ar    1  UNL1        0.0508
      3 C         139.7474  142.5645  163.2268 C.ar    1  UNL1        0.1347
      4 N         140.0027  142.7211  164.6966 N.ar    1  UNL1       -0.2122
      5 C         139.7762  141.5646  165.6246 C.ar    1  UNL1        0.1597
      6 N         139.2943  140.2515  165.0828 N.ar    1  UNL1       -0.2293
      7 C         140.0316  141.7212  167.0944 C.2     1  UNL1        0.0197
      8 C         140.2521  143.0861  167.6761 C.2     1  UNL1        0.0007
      9 C         140.5074  143.2427  169.1459 C.2     1  UNL1        0.0202
     10 C         140.5423  142.0344  170.0340 C.2     1  UNL1        0.0969
     11 N         140.7698  141.8787  171.5084 N.2     1  UNL1       -0.2228
     12 C         140.6899  140.4176  171.8380 C.2     1  UNL1        0.1986
     13 N         140.4130  139.6702  170.5672 N.2     1  UNL1       -0.2265
     14 C         140.3218  140.6695  169.4523 C.2     1  UNL1        0.0828
     15 C         140.0664  140.5129  167.9825 C.3     1  UNL1        0.0768
     16 N         139.9740  143.7211  162.2988 N.pl3   1  UNL1       -0.2880
     17 C         139.4485  145.0806  162.6527 C.3     1  UNL1        0.1242
     18 C         139.6750  146.2372  161.7247 C.3     1  UNL1        0.1636
     19 O         140.4271  146.0340  160.4428 O.3     1  UNL1       -0.3501
     20 C         140.9525  144.6744  160.0889 C.3     1  UNL1        0.1636
     21 C         140.7260  143.5178  161.0170 C.3     1  UNL1        0.1242
     22 C         138.5571  138.7818  163.0712 C.3     1  UNL1        0.1963
     23 C         139.1708  138.0123  160.2373 C.3     1  UNL1        0.1765
     24 S         138.8640  138.3971  161.6542 S.O2    1  UNL1       -0.0025
     25 O         140.2483  137.9903  162.0645 O.2     1  UNL1       -0.1726
     26 O         137.4797  138.8038  161.2439 O.2     1  UNL1       -0.1726
@<TRIPOS>BOND
     1    23    24    1
     2    24    25    2
     3    24    26    2
     4    24    22    1
     5    22     1    1
     6     1     2   ar
     7     2     3   ar
     8     3    16    1
     9    16    17    1
    10    17    18    1
    11    18    19    1
    12    19    20    1
    13    20    21    1
    14     3     4   ar
    15     4     5   ar
    16     5     7    1
    17     7     8    2
    18     8     9    1
    19     9    10    2
    20    10    11    1
    21    11    12    2
    22    12    13    1
    23    13    14    2
    24    14    15    1
    25     5     6   ar
    26     6     1   ar
    27    21    16    1
    28    15     7    1
    29    14    10    1
