@<TRIPOS>MOLECULE
*****
 47 50 0 0 0
SMALL
GASTEIGER

@<TRIPOS>ATOM
      1 C         140.5618  144.8641  160.2918 C.3     1  UNL1        0.0412
      2 C         140.3679  145.6123  159.0063 C.3     1  UNL1        0.0249
      3 C         141.2710  145.0036  157.9748 C.3     1  UNL1        0.0935
      4 N         142.0231  143.8791  158.6230 N.am    1  UNL1       -0.2795
      5 C         143.0358  142.9960  157.9561 C.2     1  UNL1        0.2256
      6 O         143.3741  143.2023  156.5095 O.2     1  UNL1       -0.2749
      7 C         141.5848  143.7929  160.0549 C.3     1  UNL1        0.0951
      8 C         139.8566  145.1388  161.5869 C.3     1  UNL1        0.0914
      9 C         140.7114  144.1736  163.8425 C.2     1  UNL1        0.2458
     10 O         141.6704  145.3200  163.9695 O.2     1  UNL1       -0.2701
     11 N         139.8045  144.0830  162.6512 N.am    1  UNL1       -0.3008
     12 H         139.1751  143.3306  162.5678 H       1  UNL1        0.1497
     13 C         140.5552  141.0063  167.0352 C.ar    1  UNL1        0.1306
     14 C         141.1167  142.3612  167.3497 C.ar    1  UNL1        0.0110
     15 C         141.1687  143.4170  166.2855 C.ar    1  UNL1        0.0032
     16 C         140.6593  143.1179  164.9067 C.ar    1  UNL1        0.0529
     17 C         140.0979  141.7630  164.5922 C.ar    1  UNL1        0.0032
     18 C         140.0458  140.7072  165.6565 C.ar    1  UNL1        0.0110
     19 C         141.6261  142.6604  168.7285 C.3     1  UNL1        0.0218
     20 C         140.3253  143.3276  169.0644 C.3     1  UNL1        0.0045
     21 C         142.9269  141.9933  168.3926 C.3     1  UNL1        0.0045
     22 C         142.1355  142.9596  170.1073 C.3     1  UNL1        0.0045
     23 C         139.4843  139.3522  165.3420 C.3     1  UNL1        0.0218
     24 C         138.0940  139.9092  165.4247 C.3     1  UNL1        0.0045
     25 C         140.8745  138.7952  165.2592 C.3     1  UNL1        0.0045
     26 C         138.9227  137.9974  165.0274 C.3     1  UNL1        0.0045
     27 C         139.3491  139.9069  169.0567 C.3     1  UNL1        0.2524
     28 O         140.5031  139.9506  168.0995 O.3     1  UNL1       -0.4721
     29 C         143.7100  141.9064  158.7360 C.3     1  UNL1        0.0853
     30 C         143.0896  140.5427  158.8097 C.3     1  UNL1        0.0096
     31 C         143.8715  139.3924  159.3713 C.3     1  UNL1        0.0012
     32 C         143.9102  139.1642  160.8532 C.3     1  UNL1        0.0087
     33 C         142.9427  139.8806  161.7480 C.3     1  UNL1        0.0446
     34 C         143.4449  140.8760  162.7514 C.ar    1  UNL1       -0.0183
     35 C         143.8190  142.2605  162.3119 C.ar    1  UNL1       -0.0017
     36 C         144.3213  143.2559  163.3153 C.ar    1  UNL1        0.0293
     37 C         144.4493  142.8669  164.7583 C.ar    1  UNL1        0.1401
     38 F         144.9515  143.8623  165.7618 F       1  UNL1       -0.2042
     39 C         144.0751  141.4824  165.1979 C.ar    1  UNL1        0.0293
     40 C         143.5729  140.4870  164.1944 C.ar    1  UNL1       -0.0017
     41 C         141.4729  139.6016  161.6393 C.ar    1  UNL1       -0.0183
     42 C         140.5020  140.7367  161.5020 C.ar    1  UNL1       -0.0017
     43 C         139.0322  140.4577  161.3933 C.ar    1  UNL1        0.0293
     44 C         138.5333  139.0434  161.4218 C.ar    1  UNL1        0.1401
     45 F         137.0635  138.7643  161.3131 F       1  UNL1       -0.2042
     46 C         139.5041  137.9082  161.5591 C.ar    1  UNL1        0.0293
     47 C         140.9739  138.1872  161.6678 C.ar    1  UNL1       -0.0017
@<TRIPOS>BOND
     1    27    28    1
     2    28    13    1
     3    13    14   ar
     4    14    19    1
     5    19    20    1
     6    19    21    1
     7    19    22    1
     8    14    15   ar
     9    15    16   ar
    10    16     9    1
    11     9    10    2
    12     9    11   am
    13    11     8    1
    14     1     8    1
    15     1     2    1
    16     2     3    1
    17     3     4    1
    18     4     5   am
    19     5     6    2
    20     5    29    1
    21    29    30    1
    22    30    31    1
    23    31    32    1
    24    32    33    1
    25    33    34    1
    26    34    35   ar
    27    35    36   ar
    28    36    37   ar
    29    37    38    1
    30    37    39   ar
    31    39    40   ar
    32    33    41    1
    33    41    42   ar
    34    42    43   ar
    35    43    44   ar
    36    44    45    1
    37    44    46   ar
    38    46    47   ar
    39     4     7    1
    40    16    17   ar
    41    17    18   ar
    42    18    23    1
    43    23    24    1
    44    23    25    1
    45    23    26    1
    46    18    13   ar
    47     7     1    1
    48    40    34   ar
    49    47    41   ar
    50    11    12    1
@<TRIPOS>MOLECULE
*****
 47 50 0 0 0
SMALL
GASTEIGER

@<TRIPOS>ATOM
      1 C         140.6031  144.9241  160.2115 C.3     1  UNL1        0.0412
      2 C         140.4174  145.7030  158.9431 C.3     1  UNL1        0.0249
      3 C         141.2736  145.0749  157.8838 C.3     1  UNL1        0.0935
      4 N         141.9886  143.9077  158.4975 N.am    1  UNL1       -0.2795
      5 C         142.9493  142.9941  157.7958 C.2     1  UNL1        0.2256
      6 O         143.2688  143.2118  156.3465 O.2     1  UNL1       -0.2749
      7 C         141.5742  143.8145  159.9361 C.3     1  UNL1        0.0951
      8 C         139.9350  145.2054  161.5248 C.3     1  UNL1        0.0914
      9 C         140.7548  144.2317  163.7897 C.2     1  UNL1        0.2458
     10 O         141.6959  145.3891  163.9466 O.2     1  UNL1       -0.2701
     11 N         139.8743  144.1398  162.5788 N.am    1  UNL1       -0.3008
     12 H         139.2566  143.3802  162.4758 H       1  UNL1        0.1497
     13 C         140.5728  141.0351  166.9517 C.ar    1  UNL1        0.1306
     14 C         141.1452  142.3823  167.2793 C.ar    1  UNL1        0.0110
     15 C         141.2059  143.4478  166.2252 C.ar    1  UNL1        0.0032
     16 C         140.6941  143.1661  164.8437 C.ar    1  UNL1        0.0529
     17 C         140.1217  141.8189  164.5161 C.ar    1  UNL1        0.0032
     18 C         140.0610  140.7534  165.5701 C.ar    1  UNL1        0.0110
     19 C         141.6570  142.6640  168.6609 C.3     1  UNL1        0.0218
     20 C         140.3401  143.2847  169.0222 C.3     1  UNL1        0.0045
     21 C         142.9738  142.0433  168.2996 C.3     1  UNL1        0.0045
     22 C         142.1687  142.9457  170.0424 C.3     1  UNL1        0.0045
     23 C         139.4886  139.4061  165.2425 C.3     1  UNL1        0.0218
     24 C         138.1033  139.9765  165.3179 C.3     1  UNL1        0.0045
     25 C         140.8738  138.8358  165.1672 C.3     1  UNL1        0.0045
     26 C         138.9161  138.0590  164.9149 C.3     1  UNL1        0.0045
     27 C         139.3119  139.8661  168.8994 C.3     1  UNL1        0.2524
     28 O         140.5121  139.9695  168.0057 O.3     1  UNL1       -0.4721
     29 C         143.5906  141.8628  158.5434 C.3     1  UNL1        0.0853
     30 C         142.9243  140.5196  158.5871 C.3     1  UNL1        0.0096
     31 C         143.6473  139.3423  159.1712 C.3     1  UNL1        0.0012
     32 C         143.8669  139.2567  160.6525 C.3     1  UNL1        0.0087
     33 C         142.9163  139.9371  161.5923 C.3     1  UNL1        0.0446
     34 C         141.4474  139.6430  161.5167 C.ar    1  UNL1       -0.0183
     35 C         140.4631  140.7673  161.3862 C.ar    1  UNL1       -0.0017
     36 C         138.9942  140.4731  161.3105 C.ar    1  UNL1        0.0293
     37 C         138.5095  139.0546  161.3653 C.ar    1  UNL1        0.1401
     38 F         137.0406  138.7604  161.2896 F       1  UNL1       -0.2042
     39 C         139.4938  137.9303  161.4958 C.ar    1  UNL1        0.0293
     40 C         140.9628  138.2245  161.5715 C.ar    1  UNL1       -0.0017
     41 C         143.4346  140.9117  162.6079 C.ar    1  UNL1       -0.0183
     42 C         143.8128  142.3015  162.1890 C.ar    1  UNL1       -0.0017
     43 C         144.3312  143.2762  163.2046 C.ar    1  UNL1        0.0293
     44 C         144.4714  142.8610  164.6391 C.ar    1  UNL1        0.1401
     45 F         144.9898  143.8356  165.6547 F       1  UNL1       -0.2042
     46 C         144.0932  141.4712  165.0581 C.ar    1  UNL1        0.0293
     47 C         143.5749  140.4966  164.0426 C.ar    1  UNL1       -0.0017
@<TRIPOS>BOND
     1    27    28    1
     2    28    13    1
     3    13    14   ar
     4    14    19    1
     5    19    20    1
     6    19    21    1
     7    19    22    1
     8    14    15   ar
     9    15    16   ar
    10    16     9    1
    11     9    10    2
    12     9    11   am
    13    11     8    1
    14     1     8    1
    15     1     2    1
    16     2     3    1
    17     3     4    1
    18     4     5   am
    19     5     6    2
    20     5    29    1
    21    29    30    1
    22    30    31    1
    23    31    32    1
    24    32    33    1
    25    33    34    1
    26    34    35   ar
    27    35    36   ar
    28    36    37   ar
    29    37    38    1
    30    37    39   ar
    31    39    40   ar
    32    33    41    1
    33    41    42   ar
    34    42    43   ar
    35    43    44   ar
    36    44    45    1
    37    44    46   ar
    38    46    47   ar
    39     4     7    1
    40    16    17   ar
    41    17    18   ar
    42    18    23    1
    43    23    24    1
    44    23    25    1
    45    23    26    1
    46    18    13   ar
    47     7     1    1
    48    40    34   ar
    49    47    41   ar
    50    11    12    1
@<TRIPOS>MOLECULE
*****
 47 50 0 0 0
SMALL
GASTEIGER

@<TRIPOS>ATOM
      1 C         140.4513  145.2035  160.4558 C.3     1  UNL1        0.0412
      2 C         140.1366  145.9024  159.1664 C.3     1  UNL1        0.0249
      3 C         141.0052  145.3122  158.0953 C.3     1  UNL1        0.0935
      4 N         141.8567  144.2486  158.7228 N.am    1  UNL1       -0.2795
      5 C         142.8722  143.4009  158.0155 C.2     1  UNL1        0.2256
      6 O         143.1075  143.5824  156.5452 O.2     1  UNL1       -0.2749
      7 C         141.5143  144.1814  160.1816 C.3     1  UNL1        0.0951
      8 C         139.8146  145.4784  161.7859 C.3     1  UNL1        0.0914
      9 C         140.7791  144.3064  163.8944 C.2     1  UNL1        0.2458
     10 O         141.8984  145.3040  163.9369 O.2     1  UNL1       -0.2701
     11 N         139.7372  144.3936  162.8190 N.am    1  UNL1       -0.3008
     12 H         139.0026  143.7388  162.7911 H       1  UNL1        0.1497
     13 C         140.5470  141.0519  166.9935 C.ar    1  UNL1        0.1306
     14 C         140.0320  140.8049  165.6066 C.ar    1  UNL1        0.0110
     15 C         140.1094  141.8898  164.5735 C.ar    1  UNL1        0.0032
     16 C         140.7018  143.2216  164.9275 C.ar    1  UNL1        0.0529
     17 C         141.2168  143.4685  166.3144 C.ar    1  UNL1        0.0032
     18 C         141.1395  142.3837  167.3475 C.ar    1  UNL1        0.0110
     19 C         139.4395  139.4731  165.2526 C.3     1  UNL1        0.0218
     20 C         140.8132  138.8717  165.2161 C.3     1  UNL1        0.0045
     21 C         138.0659  140.0745  165.2891 C.3     1  UNL1        0.0045
     22 C         138.8471  138.1413  164.8986 C.3     1  UNL1        0.0045
     23 C         141.6545  142.6307  168.7345 C.3     1  UNL1        0.0218
     24 C         142.9449  141.9553  168.3755 C.3     1  UNL1        0.0045
     25 C         140.3642  143.3061  169.0934 C.3     1  UNL1        0.0045
     26 C         142.1697  142.8777  170.1214 C.3     1  UNL1        0.0045
     27 C         139.2761  139.8758  168.9304 C.3     1  UNL1        0.2524
     28 O         140.4697  139.9671  168.0266 O.3     1  UNL1       -0.4721
     29 C         143.6525  142.3719  158.7785 C.3     1  UNL1        0.0853
     30 C         143.1957  140.9432  158.7932 C.3     1  UNL1        0.0096
     31 C         144.1029  139.8711  159.3199 C.3     1  UNL1        0.0012
     32 C         143.8575  139.2807  160.6767 C.3     1  UNL1        0.0087
     33 C         142.9073  139.9497  161.6252 C.3     1  UNL1        0.0446
     34 C         141.4361  139.6721  161.5334 C.ar    1  UNL1       -0.0183
     35 C         140.9368  138.2579  161.5587 C.ar    1  UNL1       -0.0017
     36 C         139.4655  137.9802  161.4669 C.ar    1  UNL1        0.0293
     37 C         138.4937  139.1168  161.3498 C.ar    1  UNL1        0.1401
     38 F         137.0224  138.8391  161.2580 F       1  UNL1       -0.2042
     39 C         138.9930  140.5310  161.3245 C.ar    1  UNL1        0.0293
     40 C         140.4643  140.8086  161.4163 C.ar    1  UNL1       -0.0017
     41 C         143.4284  140.8964  162.6655 C.ar    1  UNL1       -0.0183
     42 C         143.5190  140.4609  164.0980 C.ar    1  UNL1       -0.0017
     43 C         144.0401  141.4077  165.1383 C.ar    1  UNL1        0.0293
     44 C         144.4706  142.7899  164.7460 C.ar    1  UNL1        0.1401
     45 F         144.9917  143.7367  165.7863 F       1  UNL1       -0.2042
     46 C         144.3801  143.2255  163.3135 C.ar    1  UNL1        0.0293
     47 C         143.8590  142.2788  162.2732 C.ar    1  UNL1       -0.0017
@<TRIPOS>BOND
     1    27    28    1
     2    28    13    1
     3    13    14   ar
     4    14    19    1
     5    19    20    1
     6    19    21    1
     7    19    22    1
     8    14    15   ar
     9    15    16   ar
    10    16     9    1
    11     9    10    2
    12     9    11   am
    13    11     8    1
    14     1     8    1
    15     1     2    1
    16     2     3    1
    17     3     4    1
    18     4     5   am
    19     5     6    2
    20     5    29    1
    21    29    30    1
    22    30    31    1
    23    31    32    1
    24    32    33    1
    25    33    34    1
    26    34    35   ar
    27    35    36   ar
    28    36    37   ar
    29    37    38    1
    30    37    39   ar
    31    39    40   ar
    32    33    41    1
    33    41    42   ar
    34    42    43   ar
    35    43    44   ar
    36    44    45    1
    37    44    46   ar
    38    46    47   ar
    39     4     7    1
    40    16    17   ar
    41    17    18   ar
    42    18    23    1
    43    23    24    1
    44    23    25    1
    45    23    26    1
    46    18    13   ar
    47     7     1    1
    48    40    34   ar
    49    47    41   ar
    50    11    12    1
@<TRIPOS>MOLECULE
*****
 47 50 0 0 0
SMALL
GASTEIGER

@<TRIPOS>ATOM
      1 C         140.2227  145.0237  160.9294 C.3     1  UNL1        0.0412
      2 C         140.8518  145.6981  159.7464 C.3     1  UNL1        0.0249
      3 C         140.5084  144.9023  158.5222 C.3     1  UNL1        0.0935
      4 N         139.6669  143.7360  158.9487 N.am    1  UNL1       -0.2795
      5 C         139.1013  142.6800  158.0459 C.2     1  UNL1        0.2256
      6 O         139.3633  142.7360  156.5700 O.2     1  UNL1       -0.2749
      7 C         139.4904  143.8110  160.4363 C.3     1  UNL1        0.0951
      8 C         140.3105  145.4816  162.3551 C.3     1  UNL1        0.0914
      9 C         139.9357  143.8461  164.3386 C.2     1  UNL1        0.2458
     10 O         138.4536  144.0454  164.2229 O.2     1  UNL1       -0.2701
     11 N         140.8642  144.5642  163.4048 N.am    1  UNL1       -0.3008
     12 H         141.8370  144.4333  163.4807 H       1  UNL1        0.1497
     13 C         141.5967  141.0936  167.4875 C.ar    1  UNL1        0.1306
     14 C         142.0727  140.9846  166.0693 C.ar    1  UNL1        0.0110
     15 C         141.5190  141.9020  165.0197 C.ar    1  UNL1        0.0032
     16 C         140.4894  142.9286  165.3883 C.ar    1  UNL1        0.0529
     17 C         140.0133  143.0376  166.8065 C.ar    1  UNL1        0.0032
     18 C         140.5670  142.1202  167.8561 C.ar    1  UNL1        0.0110
     19 C         143.1024  139.9580  165.7006 C.3     1  UNL1        0.0218
     20 C         144.0736  141.0516  165.3678 C.3     1  UNL1        0.0045
     21 C         142.1313  138.8644  166.0334 C.3     1  UNL1        0.0045
     22 C         144.1321  138.9314  165.3320 C.3     1  UNL1        0.0045
     23 C         140.0909  142.2293  169.2744 C.3     1  UNL1        0.0218
     24 C         139.4171  140.8949  169.1509 C.3     1  UNL1        0.0045
     25 C         140.7647  143.5637  169.3980 C.3     1  UNL1        0.0045
     26 C         139.6148  142.3383  170.6927 C.3     1  UNL1        0.0045
     27 C         143.1010  140.7051  169.5698 C.3     1  UNL1        0.2524
     28 O         142.1503  140.1762  168.5372 O.3     1  UNL1       -0.4721
     29 C         138.2737  141.5680  158.6189 C.3     1  UNL1        0.0853
     30 C         138.9278  140.2835  159.0343 C.3     1  UNL1        0.0096
     31 C         138.3152  139.4460  160.1174 C.3     1  UNL1        0.0012
     32 C         139.1787  138.5391  160.9431 C.3     1  UNL1        0.0087
     33 C         139.9059  139.0794  162.1386 C.3     1  UNL1        0.0446
     34 C         141.2318  139.7591  161.9661 C.ar    1  UNL1       -0.0183
     35 C         141.2895  141.2345  161.7016 C.ar    1  UNL1       -0.0017
     36 C         142.6155  141.9142  161.5290 C.ar    1  UNL1        0.0293
     37 C         143.8838  141.1186  161.6209 C.ar    1  UNL1        0.1401
     38 F         145.2098  141.7983  161.4484 F       1  UNL1       -0.2042
     39 C         143.8261  139.6432  161.8855 C.ar    1  UNL1        0.0293
     40 C         142.5001  138.9635  162.0580 C.ar    1  UNL1       -0.0017
     41 C         139.3070  138.9399  163.5068 C.ar    1  UNL1       -0.0183
     42 C         138.7125  140.1352  164.1908 C.ar    1  UNL1       -0.0017
     43 C         138.1137  139.9958  165.5590 C.ar    1  UNL1        0.0293
     44 C         138.1092  138.6609  166.2432 C.ar    1  UNL1        0.1401
     45 F         137.5103  138.5214  167.6113 F       1  UNL1       -0.2042
     46 C         138.7037  137.4656  165.5592 C.ar    1  UNL1        0.0293
     47 C         139.3026  137.6050  164.1911 C.ar    1  UNL1       -0.0017
@<TRIPOS>BOND
     1    27    28    1
     2    28    13    1
     3    13    14   ar
     4    14    19    1
     5    19    20    1
     6    19    21    1
     7    19    22    1
     8    14    15   ar
     9    15    16   ar
    10    16     9    1
    11     9    10    2
    12     9    11   am
    13    11     8    1
    14     1     8    1
    15     1     2    1
    16     2     3    1
    17     3     4    1
    18     4     5   am
    19     5     6    2
    20     5    29    1
    21    29    30    1
    22    30    31    1
    23    31    32    1
    24    32    33    1
    25    33    34    1
    26    34    35   ar
    27    35    36   ar
    28    36    37   ar
    29    37    38    1
    30    37    39   ar
    31    39    40   ar
    32    33    41    1
    33    41    42   ar
    34    42    43   ar
    35    43    44   ar
    36    44    45    1
    37    44    46   ar
    38    46    47   ar
    39     4     7    1
    40    16    17   ar
    41    17    18   ar
    42    18    23    1
    43    23    24    1
    44    23    25    1
    45    23    26    1
    46    18    13   ar
    47     7     1    1
    48    40    34   ar
    49    47    41   ar
    50    11    12    1
@<TRIPOS>MOLECULE
*****
 47 50 0 0 0
SMALL
GASTEIGER

@<TRIPOS>ATOM
      1 C         140.2466  144.9265  160.9336 C.3     1  UNL1        0.0412
      2 C         140.8490  145.5786  159.7244 C.3     1  UNL1        0.0249
      3 C         140.4535  144.7768  158.5200 C.3     1  UNL1        0.0935
      4 N         139.6067  143.6292  158.9847 N.am    1  UNL1       -0.2795
      5 C         138.9951  142.5742  158.1111 C.2     1  UNL1        0.2256
      6 O         139.2110  142.6115  156.6272 O.2     1  UNL1       -0.2749
      7 C         139.4788  143.7217  160.4764 C.3     1  UNL1        0.0951
      8 C         140.3873  145.3967  162.3510 C.3     1  UNL1        0.0914
      9 C         139.9872  143.8932  164.4317 C.2     1  UNL1        0.2458
     10 O         138.5312  144.2531  164.4118 O.2     1  UNL1       -0.2701
     11 N         140.9153  144.4650  163.4014 N.am    1  UNL1       -0.3008
     12 H         141.8709  144.2288  163.4144 H       1  UNL1        0.1497
     13 C         141.5712  141.0981  167.5827 C.ar    1  UNL1        0.1306
     14 C         140.5700  142.1527  167.9504 C.ar    1  UNL1        0.0110
     15 C         140.0420  143.0845  166.9001 C.ar    1  UNL1        0.0032
     16 C         140.5152  142.9615  165.4821 C.ar    1  UNL1        0.0529
     17 C         141.5164  141.9068  165.1143 C.ar    1  UNL1        0.0032
     18 C         142.0444  140.9751  166.1646 C.ar    1  UNL1        0.0110
     19 C         140.0968  142.2758  169.3685 C.3     1  UNL1        0.0218
     20 C         140.7834  143.6044  169.4825 C.3     1  UNL1        0.0045
     21 C         139.4101  140.9471  169.2546 C.3     1  UNL1        0.0045
     22 C         139.6235  142.3987  170.7866 C.3     1  UNL1        0.0045
     23 C         143.0456  139.9204  165.7968 C.3     1  UNL1        0.0218
     24 C         142.0498  138.8539  166.1445 C.3     1  UNL1        0.0045
     25 C         144.0414  140.9869  165.4491 C.3     1  UNL1        0.0045
     26 C         144.0467  138.8657  165.4290 C.3     1  UNL1        0.0045
     27 C         143.0764  140.6655  169.6556 C.3     1  UNL1        0.2524
     28 O         142.0991  140.1664  168.6330 O.3     1  UNL1       -0.4721
     29 C         138.1677  141.4821  158.7214 C.3     1  UNL1        0.0853
     30 C         138.8064  140.1776  159.0963 C.3     1  UNL1        0.0096
     31 C         138.2566  139.3740  160.2374 C.3     1  UNL1        0.0012
     32 C         139.1621  138.4760  161.0270 C.3     1  UNL1        0.0087
     33 C         139.8916  139.0108  162.2236 C.3     1  UNL1        0.0446
     34 C         141.2330  139.6605  162.0557 C.ar    1  UNL1       -0.0183
     35 C         142.4829  138.8373  162.1567 C.ar    1  UNL1       -0.0017
     36 C         143.8245  139.4869  161.9888 C.ar    1  UNL1        0.0293
     37 C         143.9162  140.9598  161.7199 C.ar    1  UNL1        0.1401
     38 F         145.2577  141.6095  161.5520 F       1  UNL1       -0.2042
     39 C         142.6663  141.7830  161.6189 C.ar    1  UNL1        0.0293
     40 C         141.3247  141.1333  161.7868 C.ar    1  UNL1       -0.0017
     41 C         139.2794  138.8960  163.5882 C.ar    1  UNL1       -0.0183
     42 C         138.7243  140.1135  164.2662 C.ar    1  UNL1       -0.0017
     43 C         138.1121  139.9986  165.6307 C.ar    1  UNL1        0.0293
     44 C         138.0550  138.6662  166.3174 C.ar    1  UNL1        0.1401
     45 F         137.4428  138.5514  167.6819 F       1  UNL1       -0.2042
     46 C         138.6101  137.4487  165.6394 C.ar    1  UNL1        0.0293
     47 C         139.2222  137.5636  164.2749 C.ar    1  UNL1       -0.0017
@<TRIPOS>BOND
     1    27    28    1
     2    28    13    1
     3    13    14   ar
     4    14    19    1
     5    19    20    1
     6    19    21    1
     7    19    22    1
     8    14    15   ar
     9    15    16   ar
    10    16     9    1
    11     9    10    2
    12     9    11   am
    13    11     8    1
    14     1     8    1
    15     1     2    1
    16     2     3    1
    17     3     4    1
    18     4     5   am
    19     5     6    2
    20     5    29    1
    21    29    30    1
    22    30    31    1
    23    31    32    1
    24    32    33    1
    25    33    34    1
    26    34    35   ar
    27    35    36   ar
    28    36    37   ar
    29    37    38    1
    30    37    39   ar
    31    39    40   ar
    32    33    41    1
    33    41    42   ar
    34    42    43   ar
    35    43    44   ar
    36    44    45    1
    37    44    46   ar
    38    46    47   ar
    39     4     7    1
    40    16    17   ar
    41    17    18   ar
    42    18    23    1
    43    23    24    1
    44    23    25    1
    45    23    26    1
    46    18    13   ar
    47     7     1    1
    48    40    34   ar
    49    47    41   ar
    50    11    12    1
@<TRIPOS>MOLECULE
*****
 47 50 0 0 0
SMALL
GASTEIGER

@<TRIPOS>ATOM
      1 C         140.0453  144.9556  161.0889 C.3     1  UNL1        0.0412
      2 C         140.3652  145.6687  159.8086 C.3     1  UNL1        0.0249
      3 C         140.0013  144.7627  158.6699 C.3     1  UNL1        0.0935
      4 N         139.4564  143.4896  159.2465 N.am    1  UNL1       -0.2795
      5 C         138.9697  142.3052  158.4651 C.2     1  UNL1        0.2256
      6 O         139.0035  142.3306  156.9657 O.2     1  UNL1       -0.2749
      7 C         139.4836  143.6088  160.7414 C.3     1  UNL1        0.0951
      8 C         140.2509  145.4946  162.4736 C.3     1  UNL1        0.0914
      9 C         139.9015  143.7578  164.3740 C.2     1  UNL1        0.2458
     10 O         138.4219  143.7880  164.1295 O.2     1  UNL1       -0.2701
     11 N         140.8160  144.6111  163.5460 N.am    1  UNL1       -0.3008
     12 H         141.7872  144.5913  163.7065 H       1  UNL1        0.1497
     13 C         141.5968  141.1074  167.5913 C.ar    1  UNL1        0.1306
     14 C         142.0587  140.9540  166.1725 C.ar    1  UNL1        0.0110
     15 C         141.4936  141.8375  165.1001 C.ar    1  UNL1        0.0032
     16 C         140.4666  142.8743  165.4464 C.ar    1  UNL1        0.0529
     17 C         140.0047  143.0278  166.8652 C.ar    1  UNL1        0.0032
     18 C         140.5697  142.1443  167.9377 C.ar    1  UNL1        0.0110
     19 C         143.0858  139.9170  165.8261 C.3     1  UNL1        0.0218
     20 C         142.1189  138.8337  166.2021 C.3     1  UNL1        0.0045
     21 C         144.0527  141.0004  165.4502 C.3     1  UNL1        0.0045
     22 C         144.1129  138.8802  165.4797 C.3     1  UNL1        0.0045
     23 C         140.1077  142.2978  169.3565 C.3     1  UNL1        0.0218
     24 C         139.4289  140.9624  169.2799 C.3     1  UNL1        0.0045
     25 C         140.7866  143.6331  169.4332 C.3     1  UNL1        0.0045
     26 C         139.6457  142.4512  170.7753 C.3     1  UNL1        0.0045
     27 C         143.1409  140.7799  169.6549 C.3     1  UNL1        0.2524
     28 O         142.1619  140.2239  168.6638 O.3     1  UNL1       -0.4721
     29 C         138.4494  141.0954  159.1832 C.3     1  UNL1        0.0853
     30 C         138.8441  139.7231  158.7239 C.3     1  UNL1        0.0096
     31 C         139.8408  138.9262  159.5121 C.3     1  UNL1        0.0012
     32 C         139.4819  138.4142  160.8755 C.3     1  UNL1        0.0087
     33 C         140.1229  139.0105  162.0935 C.3     1  UNL1        0.0446
     34 C         139.4441  138.9039  163.4267 C.ar    1  UNL1       -0.0183
     35 C         138.7804  140.1068  164.0288 C.ar    1  UNL1       -0.0017
     36 C         138.1015  140.0002  165.3621 C.ar    1  UNL1        0.0293
     37 C         138.0862  138.6906  166.0934 C.ar    1  UNL1        0.1401
     38 F         137.4073  138.5840  167.4267 F       1  UNL1       -0.2042
     39 C         138.7499  137.4877  165.4913 C.ar    1  UNL1        0.0293
     40 C         139.4288  137.5943  164.1580 C.ar    1  UNL1       -0.0017
     41 C         141.4430  139.7135  161.9781 C.ar    1  UNL1       -0.0183
     42 C         142.7198  138.9320  162.0729 C.ar    1  UNL1       -0.0017
     43 C         144.0398  139.6350  161.9575 C.ar    1  UNL1        0.0293
     44 C         144.0831  141.1195  161.7472 C.ar    1  UNL1        0.1401
     45 F         145.4031  141.8225  161.6318 F       1  UNL1       -0.2042
     46 C         142.8063  141.9011  161.6524 C.ar    1  UNL1        0.0293
     47 C         141.4863  141.1981  161.7678 C.ar    1  UNL1       -0.0017
@<TRIPOS>BOND
     1    27    28    1
     2    28    13    1
     3    13    14   ar
     4    14    19    1
     5    19    20    1
     6    19    21    1
     7    19    22    1
     8    14    15   ar
     9    15    16   ar
    10    16     9    1
    11     9    10    2
    12     9    11   am
    13    11     8    1
    14     1     8    1
    15     1     2    1
    16     2     3    1
    17     3     4    1
    18     4     5   am
    19     5     6    2
    20     5    29    1
    21    29    30    1
    22    30    31    1
    23    31    32    1
    24    32    33    1
    25    33    34    1
    26    34    35   ar
    27    35    36   ar
    28    36    37   ar
    29    37    38    1
    30    37    39   ar
    31    39    40   ar
    32    33    41    1
    33    41    42   ar
    34    42    43   ar
    35    43    44   ar
    36    44    45    1
    37    44    46   ar
    38    46    47   ar
    39     4     7    1
    40    16    17   ar
    41    17    18   ar
    42    18    23    1
    43    23    24    1
    44    23    25    1
    45    23    26    1
    46    18    13   ar
    47     7     1    1
    48    40    34   ar
    49    47    41   ar
    50    11    12    1
@<TRIPOS>MOLECULE
*****
 47 50 0 0 0
SMALL
GASTEIGER

@<TRIPOS>ATOM
      1 C         140.5348  144.9250  160.5692 C.3     1  UNL1        0.0412
      2 C         140.3038  145.8496  159.4108 C.3     1  UNL1        0.0249
      3 C         140.5202  145.0719  158.1466 C.3     1  UNL1        0.0935
      4 N         140.8851  143.6666  158.5236 N.am    1  UNL1       -0.2795
      5 C         141.1878  142.5484  157.5707 C.2     1  UNL1        0.2256
      6 O         141.1391  142.7900  156.0911 O.2     1  UNL1       -0.2749
      7 C         140.8941  143.5759  160.0208 C.3     1  UNL1        0.0951
      8 C         140.4257  145.2862  162.0210 C.3     1  UNL1        0.0914
      9 C         139.6764  143.9799  164.1380 C.2     1  UNL1        0.2458
     10 O         138.3839  144.7409  164.1501 O.2     1  UNL1       -0.2701
     11 N         140.6973  144.2526  163.0735 N.am    1  UNL1       -0.3008
     12 H         141.5457  143.7531  163.0655 H       1  UNL1        0.1497
     13 C         140.4913  140.8788  167.2955 C.ar    1  UNL1        0.1306
     14 C         139.8246  140.4842  166.0111 C.ar    1  UNL1        0.0110
     15 C         139.5529  141.5179  164.9586 C.ar    1  UNL1        0.0032
     16 C         139.9481  142.9462  165.1905 C.ar    1  UNL1        0.0529
     17 C         140.6148  143.3408  166.4749 C.ar    1  UNL1        0.0032
     18 C         140.8864  142.3071  167.5274 C.ar    1  UNL1        0.0110
     19 C         139.4294  139.0559  165.7792 C.3     1  UNL1        0.0218
     20 C         138.0227  139.3787  166.1876 C.3     1  UNL1        0.0045
     21 C         140.8361  138.7331  165.3707 C.3     1  UNL1        0.0045
     22 C         139.0343  137.6276  165.5472 C.3     1  UNL1        0.0045
     23 C         141.5532  142.7018  168.8118 C.3     1  UNL1        0.0218
     24 C         142.8342  142.0822  168.3372 C.3     1  UNL1        0.0045
     25 C         140.2723  143.3214  169.2865 C.3     1  UNL1        0.0045
     26 C         142.2201  143.0964  170.0962 C.3     1  UNL1        0.0045
     27 C         139.9597  139.8355  169.6147 C.3     1  UNL1        0.2524
     28 O         140.7630  139.8452  168.3480 O.3     1  UNL1       -0.4721
     29 C         141.5392  141.1886  158.0974 C.3     1  UNL1        0.0853
     30 C         142.9773  140.7790  158.2163 C.3     1  UNL1        0.0096
     31 C         143.3600  139.6347  159.1074 C.3     1  UNL1        0.0012
     32 C         143.8445  139.8996  160.5020 C.3     1  UNL1        0.0087
     33 C         142.8915  140.4069  161.5434 C.3     1  UNL1        0.0446
     34 C         143.3111  141.5080  162.4714 C.ar    1  UNL1       -0.0183
     35 C         143.8622  142.7878  161.9159 C.ar    1  UNL1       -0.0017
     36 C         144.2819  143.8890  162.8439 C.ar    1  UNL1        0.0293
     37 C         144.1505  143.7105  164.3274 C.ar    1  UNL1        0.1401
     38 F         144.5702  144.8117  165.2555 F       1  UNL1       -0.2042
     39 C         143.5994  142.4308  164.8829 C.ar    1  UNL1        0.0293
     40 C         143.1797  141.3295  163.9549 C.ar    1  UNL1       -0.0017
     41 C         141.5188  139.8128  161.6568 C.ar    1  UNL1       -0.0183
     42 C         140.3098  140.6971  161.5765 C.ar    1  UNL1       -0.0017
     43 C         138.9372  140.1031  161.6899 C.ar    1  UNL1        0.0293
     44 C         138.7734  138.6247  161.8836 C.ar    1  UNL1        0.1401
     45 F         137.4007  138.0306  161.9970 F       1  UNL1       -0.2042
     46 C         139.9824  137.7403  161.9640 C.ar    1  UNL1        0.0293
     47 C         141.3550  138.3344  161.8506 C.ar    1  UNL1       -0.0017
@<TRIPOS>BOND
     1    27    28    1
     2    28    13    1
     3    13    14   ar
     4    14    19    1
     5    19    20    1
     6    19    21    1
     7    19    22    1
     8    14    15   ar
     9    15    16   ar
    10    16     9    1
    11     9    10    2
    12     9    11   am
    13    11     8    1
    14     1     8    1
    15     1     2    1
    16     2     3    1
    17     3     4    1
    18     4     5   am
    19     5     6    2
    20     5    29    1
    21    29    30    1
    22    30    31    1
    23    31    32    1
    24    32    33    1
    25    33    34    1
    26    34    35   ar
    27    35    36   ar
    28    36    37   ar
    29    37    38    1
    30    37    39   ar
    31    39    40   ar
    32    33    41    1
    33    41    42   ar
    34    42    43   ar
    35    43    44   ar
    36    44    45    1
    37    44    46   ar
    38    46    47   ar
    39     4     7    1
    40    16    17   ar
    41    17    18   ar
    42    18    23    1
    43    23    24    1
    44    23    25    1
    45    23    26    1
    46    18    13   ar
    47     7     1    1
    48    40    34   ar
    49    47    41   ar
    50    11    12    1
@<TRIPOS>MOLECULE
*****
 47 50 0 0 0
SMALL
GASTEIGER

@<TRIPOS>ATOM
      1 C         144.5199  142.4519  160.6184 C.3     1  UNL1        0.0412
      2 C         144.9328  141.8396  159.3127 C.3     1  UNL1        0.0249
      3 C         144.1043  142.4603  158.2272 C.3     1  UNL1        0.0935
      4 N         143.1795  143.4562  158.8620 N.am    1  UNL1       -0.2795
      5 C         142.1742  144.3078  158.1448 C.2     1  UNL1        0.2256
      6 O         142.0291  144.2034  156.6555 O.2     1  UNL1       -0.2749
      7 C         143.4364  143.4510  160.3398 C.3     1  UNL1        0.0951
      8 C         145.0906  142.1228  161.9661 C.3     1  UNL1        0.0914
      9 C         143.4610  142.5727  163.9389 C.2     1  UNL1        0.2458
     10 O         143.6220  144.0500  163.7349 O.2     1  UNL1       -0.2701
     11 N         144.1953  141.6091  163.0545 N.am    1  UNL1       -0.3008
     12 H         144.0897  140.6395  163.1884 H       1  UNL1        0.1497
     13 C         140.7752  141.0317  167.2041 C.ar    1  UNL1        0.1306
     14 C         140.6970  140.4412  165.8275 C.ar    1  UNL1        0.0110
     15 C         141.5923  140.9548  164.7391 C.ar    1  UNL1        0.0032
     16 C         142.5657  142.0590  165.0273 C.ar    1  UNL1        0.0529
     17 C         142.6439  142.6495  166.4039 C.ar    1  UNL1        0.0032
     18 C         141.7487  142.1358  167.4923 C.ar    1  UNL1        0.0110
     19 C         139.7235  139.3369  165.5392 C.3     1  UNL1        0.0218
     20 C         138.5977  140.3281  165.5443 C.3     1  UNL1        0.0045
     21 C         140.8493  138.3458  165.5340 C.3     1  UNL1        0.0045
     22 C         138.7501  138.2327  165.2509 C.3     1  UNL1        0.0045
     23 C         141.8269  142.7264  168.8690 C.3     1  UNL1        0.0218
     24 C         140.4673  143.3329  168.6860 C.3     1  UNL1        0.0045
     25 C         143.1865  142.1198  169.0520 C.3     1  UNL1        0.0045
     26 C         141.9051  143.3169  170.2456 C.3     1  UNL1        0.0045
     27 C         140.4600  139.7394  169.4358 C.3     1  UNL1        0.2524
     28 O         139.8799  140.5180  168.2925 O.3     1  UNL1       -0.4721
     29 C         141.3141  145.2638  158.9170 C.3     1  UNL1        0.0853
     30 C         140.0544  144.7788  159.5712 C.3     1  UNL1        0.0096
     31 C         139.4293  143.4885  159.1306 C.3     1  UNL1        0.0012
     32 C         138.5601  142.7146  160.0769 C.3     1  UNL1        0.0087
     33 C         139.1176  142.2317  161.3830 C.3     1  UNL1        0.0446
     34 C         138.9484  143.0590  162.6226 C.ar    1  UNL1       -0.0183
     35 C         140.0954  143.8735  163.1431 C.ar    1  UNL1       -0.0017
     36 C         139.9261  144.7010  164.3827 C.ar    1  UNL1        0.0293
     37 C         138.6098  144.7139  165.1019 C.ar    1  UNL1        0.1401
     38 F         138.4405  145.5414  166.3415 F       1  UNL1       -0.2042
     39 C         137.4628  143.8995  164.5814 C.ar    1  UNL1        0.0293
     40 C         137.6321  143.0720  163.3417 C.ar    1  UNL1       -0.0017
     41 C         139.8445  140.9212  161.4494 C.ar    1  UNL1       -0.0183
     42 C         141.3108  140.8601  161.1391 C.ar    1  UNL1       -0.0017
     43 C         142.0376  139.5497  161.2055 C.ar    1  UNL1        0.0293
     44 C         141.2981  138.3002  161.5823 C.ar    1  UNL1        0.1401
     45 F         142.0250  136.9898  161.6487 F       1  UNL1       -0.2042
     46 C         139.8318  138.3612  161.8926 C.ar    1  UNL1        0.0293
     47 C         139.1050  139.6716  161.8262 C.ar    1  UNL1       -0.0017
@<TRIPOS>BOND
     1    27    28    1
     2    28    13    1
     3    13    14   ar
     4    14    19    1
     5    19    20    1
     6    19    21    1
     7    19    22    1
     8    14    15   ar
     9    15    16   ar
    10    16     9    1
    11     9    10    2
    12     9    11   am
    13    11     8    1
    14     1     8    1
    15     1     2    1
    16     2     3    1
    17     3     4    1
    18     4     5   am
    19     5     6    2
    20     5    29    1
    21    29    30    1
    22    30    31    1
    23    31    32    1
    24    32    33    1
    25    33    34    1
    26    34    35   ar
    27    35    36   ar
    28    36    37   ar
    29    37    38    1
    30    37    39   ar
    31    39    40   ar
    32    33    41    1
    33    41    42   ar
    34    42    43   ar
    35    43    44   ar
    36    44    45    1
    37    44    46   ar
    38    46    47   ar
    39     4     7    1
    40    16    17   ar
    41    17    18   ar
    42    18    23    1
    43    23    24    1
    44    23    25    1
    45    23    26    1
    46    18    13   ar
    47     7     1    1
    48    40    34   ar
    49    47    41   ar
    50    11    12    1
@<TRIPOS>MOLECULE
*****
 47 50 0 0 0
SMALL
GASTEIGER

@<TRIPOS>ATOM
      1 C         138.7346  139.1286  165.3374 C.3     1  UNL1        0.0412
      2 C         138.0666  138.6399  166.5884 C.3     1  UNL1        0.0249
      3 C         138.5835  139.4532  167.7380 C.3     1  UNL1        0.0935
      4 N         139.5710  140.4445  167.1974 N.am    1  UNL1       -0.2795
      5 C         140.3316  141.4584  167.9996 C.2     1  UNL1        0.2256
      6 O         140.1334  141.5422  169.4841 O.2     1  UNL1       -0.2749
      7 C         139.6644  140.2439  165.7138 C.3     1  UNL1        0.0951
      8 C         138.5119  138.5956  163.9531 C.3     1  UNL1        0.0914
      9 C         139.9721  138.7663  161.8110 C.2     1  UNL1        0.2458
     10 O         140.4825  137.3759  162.0481 O.2     1  UNL1       -0.2701
     11 N         138.9868  139.3761  162.7635 N.am    1  UNL1       -0.3008
     12 H         138.6518  140.2887  162.6079 H       1  UNL1        0.1497
     13 C         141.3967  141.1080  158.2421 C.ar    1  UNL1        0.1306
     14 C         141.4611  139.6095  158.2302 C.ar    1  UNL1        0.0110
     15 C         140.9862  138.8289  159.4198 C.ar    1  UNL1        0.0032
     16 C         140.4470  139.5469  160.6213 C.ar    1  UNL1        0.0529
     17 C         140.3826  141.0454  160.6333 C.ar    1  UNL1        0.0032
     18 C         140.8575  141.8260  159.4436 C.ar    1  UNL1        0.0110
     19 C         142.0003  138.8914  157.0286 C.3     1  UNL1        0.0218
     20 C         143.3993  139.2093  157.4664 C.3     1  UNL1        0.0045
     21 C         140.6013  138.5735  156.5908 C.3     1  UNL1        0.0045
     22 C         142.5395  138.1734  155.8271 C.3     1  UNL1        0.0045
     23 C         140.7932  143.3246  159.4556 C.3     1  UNL1        0.0218
     24 C         139.3402  143.2651  159.0877 C.3     1  UNL1        0.0045
     25 C         142.2461  143.3841  159.8235 C.3     1  UNL1        0.0045
     26 C         140.7288  144.8231  159.4675 C.3     1  UNL1        0.0045
     27 C         140.9146  142.2310  155.9494 C.3     1  UNL1        0.2524
     28 O         141.8716  141.8886  157.0525 O.3     1  UNL1       -0.4721
     29 C         141.2904  142.3886  167.3173 C.3     1  UNL1        0.0853
     30 C         142.6789  141.9258  166.9888 C.3     1  UNL1        0.0096
     31 C         143.6957  142.9053  166.4821 C.3     1  UNL1        0.0012
     32 C         144.1746  142.8226  165.0630 C.3     1  UNL1        0.0087
     33 C         143.2308  142.4003  163.9763 C.3     1  UNL1        0.0446
     34 C         142.0731  143.2788  163.6050 C.ar    1  UNL1       -0.0183
     35 C         140.6901  142.7034  163.5261 C.ar    1  UNL1       -0.0017
     36 C         139.5323  143.5819  163.1548 C.ar    1  UNL1        0.0293
     37 C         139.7575  145.0357  162.8625 C.ar    1  UNL1        0.1401
     38 F         138.5997  145.9142  162.4912 F       1  UNL1       -0.2042
     39 C         141.1405  145.6111  162.9414 C.ar    1  UNL1        0.0293
     40 C         142.2983  144.7327  163.3127 C.ar    1  UNL1       -0.0017
     41 C         143.4449  141.0995  163.2608 C.ar    1  UNL1       -0.0183
     42 C         143.9529  141.0944  161.8494 C.ar    1  UNL1       -0.0017
     43 C         144.1670  139.7936  161.1340 C.ar    1  UNL1        0.0293
     44 C         143.8731  138.4977  161.8298 C.ar    1  UNL1        0.1401
     45 F         144.0872  137.1968  161.1143 F       1  UNL1       -0.2042
     46 C         143.3651  138.5026  163.2412 C.ar    1  UNL1        0.0293
     47 C         143.1510  139.8035  163.9567 C.ar    1  UNL1       -0.0017
@<TRIPOS>BOND
     1    27    28    1
     2    28    13    1
     3    13    14   ar
     4    14    19    1
     5    19    20    1
     6    19    21    1
     7    19    22    1
     8    14    15   ar
     9    15    16   ar
    10    16     9    1
    11     9    10    2
    12     9    11   am
    13    11     8    1
    14     1     8    1
    15     1     2    1
    16     2     3    1
    17     3     4    1
    18     4     5   am
    19     5     6    2
    20     5    29    1
    21    29    30    1
    22    30    31    1
    23    31    32    1
    24    32    33    1
    25    33    34    1
    26    34    35   ar
    27    35    36   ar
    28    36    37   ar
    29    37    38    1
    30    37    39   ar
    31    39    40   ar
    32    33    41    1
    33    41    42   ar
    34    42    43   ar
    35    43    44   ar
    36    44    45    1
    37    44    46   ar
    38    46    47   ar
    39     4     7    1
    40    16    17   ar
    41    17    18   ar
    42    18    23    1
    43    23    24    1
    44    23    25    1
    45    23    26    1
    46    18    13   ar
    47     7     1    1
    48    40    34   ar
    49    47    41   ar
    50    11    12    1
