@<TRIPOS>MOLECULE
*****
 31 35 0 0 0
SMALL
GASTEIGER

@<TRIPOS>ATOM
      1 C         139.4761  138.0791  161.9175 C.3     1  UNL1        0.0771
      2 N         139.5735  138.5944  163.3228 N.3     1  UNL1       -0.2695
      3 C         140.6821  138.1262  164.2183 C.3     1  UNL1        0.0938
      4 C         140.7794  138.6415  165.6236 C.3     1  UNL1        0.1081
      5 N         139.7682  139.6250  166.1335 N.pl3   1  UNL1       -0.3046
      6 C         138.6596  140.0932  165.2381 C.3     1  UNL1        0.1081
      7 C         138.5622  139.5779  163.8328 C.3     1  UNL1        0.0938
      8 C         139.8655  140.1403  167.5388 C.ar    1  UNL1        0.0484
      9 C         138.8002  139.7992  168.5383 C.ar    1  UNL1        0.0146
     10 C         138.8976  140.3145  169.9436 C.ar    1  UNL1        0.0018
     11 C         140.0602  141.1710  170.3495 C.ar    1  UNL1        0.0066
     12 C         141.1254  141.5122  169.3501 C.ar    1  UNL1        0.0307
     13 S         142.3788  142.3291  169.4584 S.2     1  UNL1       -0.0864
     14 C         143.0561  142.3186  168.1201 C.ar    1  UNL1        0.0355
     15 C         142.2213  141.4952  167.1846 C.ar    1  UNL1        0.0087
     16 C         141.0281  140.9969  167.9448 C.ar    1  UNL1        0.0198
     17 C         140.3318  138.6749  160.8393 C.3     1  UNL1        0.0497
     18 C         143.1604  137.7157  161.1204 C.3     1  UNL1        0.0520
     19 C         142.8347  139.1641  161.3358 C.ar    1  UNL1        0.0614
     20 N         143.9233  140.1327  161.6916 N.ar    1  UNL1       -0.2343
     21 C         143.5976  141.5811  161.9070 C.ar    1  UNL1        0.1491
     22 N         142.1833  142.0607  161.7664 N.ar    1  UNL1       -0.2824
     23 C         141.0947  141.0919  161.4105 C.ar    1  UNL1        0.2589
     24 O         139.6804  141.5715  161.2700 O.2     1  UNL1       -0.2672
     25 C         141.4204  139.6437  161.1952 C.ar    1  UNL1        0.0489
     26 C         141.8576  143.5089  161.9817 C.3     1  UNL1        0.1103
     27 C         142.9462  144.4776  162.3376 C.3     1  UNL1        0.0276
     28 C         144.3604  143.9980  162.4781 C.3     1  UNL1        0.0390
     29 C         144.6862  142.5497  162.2628 C.3     1  UNL1        0.1668
     30 O         146.1005  142.0701  162.4034 O.3     1  UNL1       -0.3770
     31 H         146.5652  142.1821  161.5594 H       1  UNL1        0.2109
@<TRIPOS>BOND
     1    18    19    1
     2    19    20   ar
     3    20    21   ar
     4    21    22   ar
     5    22    23   ar
     6    23    24    2
     7    23    25   ar
     8    25    17    1
     9    17     1    1
    10     1     2    1
    11     2     3    1
    12     3     4    1
    13     4     5    1
    14     5     8    1
    15     8     9   ar
    16     9    10   ar
    17    10    11   ar
    18    11    12   ar
    19    12    13   ar
    20    13    14   ar
    21    14    15   ar
    22    15    16   ar
    23     5     6    1
    24     6     7    1
    25    22    26    1
    26    26    27    1
    27    27    28    1
    28    28    29    1
    29    29    30    1
    30    25    19   ar
    31     7     2    1
    32    29    21    1
    33    16     8   ar
    34    16    12   ar
    35    30    31    1
@<TRIPOS>MOLECULE
*****
 31 35 0 0 0
SMALL
GASTEIGER

@<TRIPOS>ATOM
      1 C         138.7406  138.2302  161.8864 C.3     1  UNL1        0.0771
      2 N         139.0036  138.7232  163.2784 N.3     1  UNL1       -0.2695
      3 C         140.0494  138.0590  164.1242 C.3     1  UNL1        0.0938
      4 C         140.3125  138.5520  165.5162 C.3     1  UNL1        0.1081
      5 N         139.5298  139.7091  166.0625 N.pl3   1  UNL1       -0.3046
      6 C         138.4840  140.3732  165.2168 C.3     1  UNL1        0.1081
      7 C         138.2209  139.8803  163.8247 C.3     1  UNL1        0.0938
      8 C         139.7928  140.2021  167.4545 C.ar    1  UNL1        0.0484
      9 C         138.8339  139.8737  168.5602 C.ar    1  UNL1        0.0146
     10 C         139.0970  140.3667  169.9523 C.ar    1  UNL1        0.0018
     11 C         140.3189  141.1881  170.2386 C.ar    1  UNL1        0.0066
     12 C         141.2779  141.5165  169.1329 C.ar    1  UNL1        0.0307
     13 S         142.5567  142.3003  169.1131 S.2     1  UNL1       -0.0864
     14 C         143.0839  142.2917  167.7089 C.ar    1  UNL1        0.0355
     15 C         142.1310  141.5026  166.8607 C.ar    1  UNL1        0.0087
     16 C         141.0148  141.0236  167.7409 C.ar    1  UNL1        0.0198
     17 C         139.4768  138.8316  160.7261 C.3     1  UNL1        0.0497
     18 C         138.3978  141.6163  160.4414 C.3     1  UNL1        0.0520
     19 C         139.8393  141.4033  160.7978 C.ar    1  UNL1        0.0614
     20 N         140.7411  142.5826  161.0118 N.ar    1  UNL1       -0.2343
     21 C         142.1826  142.3696  161.3682 C.ar    1  UNL1        0.1491
     22 N         142.7221  140.9772  161.5105 N.ar    1  UNL1       -0.2824
     23 C         141.8201  139.7979  161.2965 C.ar    1  UNL1        0.2589
     24 O         142.3596  138.4055  161.4388 O.2     1  UNL1       -0.2672
     25 C         140.3788  140.0110  160.9402 C.ar    1  UNL1        0.0489
     26 C         144.1635  140.7642  161.8669 C.3     1  UNL1        0.1103
     27 C         145.0653  141.9435  162.0808 C.3     1  UNL1        0.0276
     28 C         144.5258  143.3358  161.9385 C.3     1  UNL1        0.0390
     29 C         143.0844  143.5489  161.5822 C.3     1  UNL1        0.1668
     30 O         142.5449  144.9413  161.4398 O.3     1  UNL1       -0.3770
     31 H         142.2601  145.2679  162.3076 H       1  UNL1        0.2109
@<TRIPOS>BOND
     1    18    19    1
     2    19    20   ar
     3    20    21   ar
     4    21    22   ar
     5    22    23   ar
     6    23    24    2
     7    23    25   ar
     8    25    17    1
     9    17     1    1
    10     1     2    1
    11     2     3    1
    12     3     4    1
    13     4     5    1
    14     5     8    1
    15     8     9   ar
    16     9    10   ar
    17    10    11   ar
    18    11    12   ar
    19    12    13   ar
    20    13    14   ar
    21    14    15   ar
    22    15    16   ar
    23     5     6    1
    24     6     7    1
    25    22    26    1
    26    26    27    1
    27    27    28    1
    28    28    29    1
    29    29    30    1
    30    25    19   ar
    31     7     2    1
    32    29    21    1
    33    16     8   ar
    34    16    12   ar
    35    30    31    1
@<TRIPOS>MOLECULE
*****
 31 35 0 0 0
SMALL
GASTEIGER

@<TRIPOS>ATOM
      1 C         144.0960  143.8183  164.7853 C.3     1  UNL1        0.0771
      2 N         143.3613  143.9438  163.4836 N.3     1  UNL1       -0.2695
      3 C         142.0501  144.6705  163.4294 C.3     1  UNL1        0.0938
      4 C         141.3155  144.7960  162.1276 C.3     1  UNL1        0.1081
      5 N         141.8920  144.1950  160.8801 N.pl3   1  UNL1       -0.3046
      6 C         143.2031  143.4684  160.9343 C.3     1  UNL1        0.1081
      7 C         143.9378  143.3428  162.2360 C.3     1  UNL1        0.0938
      8 C         141.1574  144.3205  159.5784 C.ar    1  UNL1        0.0484
      9 C         141.5102  145.4201  158.6211 C.ar    1  UNL1        0.0146
     10 C         140.7755  145.5456  157.3193 C.ar    1  UNL1        0.0018
     11 C         139.6881  144.5716  156.9749 C.ar    1  UNL1        0.0066
     12 C         139.3353  143.4719  157.9321 C.ar    1  UNL1        0.0307
     13 S         138.3175  142.3721  157.8664 S.2     1  UNL1       -0.0864
     14 C         138.4231  141.5668  159.1275 C.ar    1  UNL1        0.0355
     15 C         139.5062  142.1690  159.9726 C.ar    1  UNL1        0.0087
     16 C         140.0699  143.3464  159.2339 C.ar    1  UNL1        0.0198
     17 C         143.9332  142.5843  165.6223 C.3     1  UNL1        0.0497
     18 C         145.2693  140.3694  164.1026 C.3     1  UNL1        0.0520
     19 C         143.7903  140.3240  164.3492 C.ar    1  UNL1        0.0614
     20 N         142.9795  139.1712  163.8359 N.ar    1  UNL1       -0.2343
     21 C         141.5005  139.1257  164.0824 C.ar    1  UNL1        0.1491
     22 N         140.8325  140.2331  164.8423 N.ar    1  UNL1       -0.2824
     23 C         141.6434  141.3860  165.3556 C.ar    1  UNL1        0.2589
     24 O         140.9754  142.4934  166.1154 O.2     1  UNL1       -0.2672
     25 C         143.1223  141.4314  165.1090 C.ar    1  UNL1        0.0489
     26 C         139.3536  140.1877  165.0888 C.3     1  UNL1        0.1103
     27 C         138.5428  139.0349  164.5755 C.3     1  UNL1        0.0276
     28 C         139.2108  137.9275  163.8157 C.3     1  UNL1        0.0390
     29 C         140.6897  137.9729  163.5691 C.3     1  UNL1        0.1668
     30 O         141.3577  136.8655  162.8093 O.3     1  UNL1       -0.3770
     31 H         141.5972  136.1521  163.4213 H       1  UNL1        0.2109
@<TRIPOS>BOND
     1    18    19    1
     2    19    20   ar
     3    20    21   ar
     4    21    22   ar
     5    22    23   ar
     6    23    24    2
     7    23    25   ar
     8    25    17    1
     9    17     1    1
    10     1     2    1
    11     2     3    1
    12     3     4    1
    13     4     5    1
    14     5     8    1
    15     8     9   ar
    16     9    10   ar
    17    10    11   ar
    18    11    12   ar
    19    12    13   ar
    20    13    14   ar
    21    14    15   ar
    22    15    16   ar
    23     5     6    1
    24     6     7    1
    25    22    26    1
    26    26    27    1
    27    27    28    1
    28    28    29    1
    29    29    30    1
    30    25    19   ar
    31     7     2    1
    32    29    21    1
    33    16     8   ar
    34    16    12   ar
    35    30    31    1
@<TRIPOS>MOLECULE
*****
 31 35 0 0 0
SMALL
GASTEIGER

@<TRIPOS>ATOM
      1 C         140.5677  145.5038  162.6307 C.3     1  UNL1        0.0771
      2 N         140.8352  144.5723  163.7756 N.3     1  UNL1       -0.2695
      3 C         142.2150  144.0242  163.9899 C.3     1  UNL1        0.0938
      4 C         142.4825  143.0927  165.1348 C.3     1  UNL1        0.1081
      5 N         141.3703  142.7093  166.0654 N.pl3   1  UNL1       -0.3046
      6 C         139.9906  143.2573  165.8511 C.3     1  UNL1        0.1081
      7 C         139.7230  144.1889  164.7062 C.3     1  UNL1        0.0938
      8 C         141.6378  141.7778  167.2102 C.ar    1  UNL1        0.0484
      9 C         142.4025  140.5079  166.9810 C.ar    1  UNL1        0.0146
     10 C         142.6700  139.5764  168.1259 C.ar    1  UNL1        0.0018
     11 C         142.1728  139.9148  169.5000 C.ar    1  UNL1        0.0066
     12 C         141.4081  141.1847  169.7293 C.ar    1  UNL1        0.0307
     13 S         140.7978  141.7800  170.9634 S.2     1  UNL1       -0.0864
     14 C         140.1531  143.0793  170.5813 C.ar    1  UNL1        0.0355
     15 C         140.3650  143.2871  169.1109 C.ar    1  UNL1        0.0087
     16 C         141.1406  142.1162  168.5844 C.ar    1  UNL1        0.0198
     17 C         140.1806  144.9529  161.2904 C.3     1  UNL1        0.0497
     18 C         142.6141  143.5907  160.1849 C.3     1  UNL1        0.0520
     19 C         141.3886  142.7891  160.5102 C.ar    1  UNL1        0.0614
     20 N         141.3800  141.3065  160.2827 N.ar    1  UNL1       -0.2343
     21 C         140.1545  140.5049  160.6081 C.ar    1  UNL1        0.1491
     22 N         138.9377  141.1860  161.1609 N.ar    1  UNL1       -0.2824
     23 C         138.9464  142.6687  161.3883 C.ar    1  UNL1        0.2589
     24 O         137.7297  143.3498  161.9411 O.2     1  UNL1       -0.2672
     25 C         140.1719  143.4702  161.0630 C.ar    1  UNL1        0.0489
     26 C         137.7123  140.3845  161.4862 C.3     1  UNL1        0.1103
     27 C         137.7037  138.9019  161.2587 C.3     1  UNL1        0.0276
     28 C         138.9204  138.2208  160.7060 C.3     1  UNL1        0.0390
     29 C         140.1459  139.0223  160.3806 C.3     1  UNL1        0.1668
     30 O         141.3626  138.3412  159.8279 O.3     1  UNL1       -0.3770
     31 H         141.9101  138.0141  160.5587 H       1  UNL1        0.2109
@<TRIPOS>BOND
     1    18    19    1
     2    19    20   ar
     3    20    21   ar
     4    21    22   ar
     5    22    23   ar
     6    23    24    2
     7    23    25   ar
     8    25    17    1
     9    17     1    1
    10     1     2    1
    11     2     3    1
    12     3     4    1
    13     4     5    1
    14     5     8    1
    15     8     9   ar
    16     9    10   ar
    17    10    11   ar
    18    11    12   ar
    19    12    13   ar
    20    13    14   ar
    21    14    15   ar
    22    15    16   ar
    23     5     6    1
    24     6     7    1
    25    22    26    1
    26    26    27    1
    27    27    28    1
    28    28    29    1
    29    29    30    1
    30    25    19   ar
    31     7     2    1
    32    29    21    1
    33    16     8   ar
    34    16    12   ar
    35    30    31    1
@<TRIPOS>MOLECULE
*****
 31 35 0 0 0
SMALL
GASTEIGER

@<TRIPOS>ATOM
      1 C         140.9354  137.6064  162.7715 C.3     1  UNL1        0.0771
      2 N         141.1579  138.1983  164.1317 N.3     1  UNL1       -0.2695
      3 C         139.9847  138.5556  164.9953 C.3     1  UNL1        0.0938
      4 C         140.2072  139.1474  166.3555 C.3     1  UNL1        0.1081
      5 N         141.6031  139.3820  166.8521 N.pl3   1  UNL1       -0.3046
      6 C         142.7763  139.0247  165.9886 C.3     1  UNL1        0.1081
      7 C         142.5538  138.4328  164.6283 C.3     1  UNL1        0.0938
      8 C         141.8257  139.9738  168.2123 C.ar    1  UNL1        0.0484
      9 C         142.5914  139.2056  169.2484 C.ar    1  UNL1        0.0146
     10 C         142.8140  139.7975  170.6086 C.ar    1  UNL1        0.0018
     11 C         142.2708  141.1576  170.9327 C.ar    1  UNL1        0.0066
     12 C         141.5050  141.9258  169.8967 C.ar    1  UNL1        0.0307
     13 S         140.8550  143.2773  169.9261 S.2     1  UNL1       -0.0864
     14 C         140.2308  143.5208  168.5841 C.ar    1  UNL1        0.0355
     15 C         140.4949  142.3197  167.7252 C.ar    1  UNL1        0.0087
     16 C         141.2824  141.3340  168.5365 C.ar    1  UNL1        0.0198
     17 C         140.6749  138.5025  161.5972 C.3     1  UNL1        0.0497
     18 C         137.7540  139.1737  161.7320 C.3     1  UNL1        0.0520
     19 C         138.7803  140.2569  161.8855 C.ar    1  UNL1        0.0614
     20 N         138.3461  141.6755  162.1064 N.ar    1  UNL1       -0.2343
     21 C         139.3724  142.7587  162.2599 C.ar    1  UNL1        0.1491
     22 N         140.8328  142.4232  162.1925 N.ar    1  UNL1       -0.2824
     23 C         141.2670  141.0044  161.9716 C.ar    1  UNL1        0.2589
     24 O         142.7274  140.6689  161.9042 O.2     1  UNL1       -0.2672
     25 C         140.2407  139.9213  161.8181 C.ar    1  UNL1        0.0489
     26 C         141.8591  143.5063  162.3461 C.3     1  UNL1        0.1103
     27 C         141.4249  144.9249  162.5670 C.3     1  UNL1        0.0276
     28 C         139.9645  145.2605  162.6344 C.3     1  UNL1        0.0390
     29 C         138.9382  144.1774  162.4809 C.3     1  UNL1        0.1668
     30 O         137.4778  144.5129  162.5483 O.3     1  UNL1       -0.3770
     31 H         137.1856  144.5009  163.4731 H       1  UNL1        0.2109
@<TRIPOS>BOND
     1    18    19    1
     2    19    20   ar
     3    20    21   ar
     4    21    22   ar
     5    22    23   ar
     6    23    24    2
     7    23    25   ar
     8    25    17    1
     9    17     1    1
    10     1     2    1
    11     2     3    1
    12     3     4    1
    13     4     5    1
    14     5     8    1
    15     8     9   ar
    16     9    10   ar
    17    10    11   ar
    18    11    12   ar
    19    12    13   ar
    20    13    14   ar
    21    14    15   ar
    22    15    16   ar
    23     5     6    1
    24     6     7    1
    25    22    26    1
    26    26    27    1
    27    27    28    1
    28    28    29    1
    29    29    30    1
    30    25    19   ar
    31     7     2    1
    32    29    21    1
    33    16     8   ar
    34    16    12   ar
    35    30    31    1
@<TRIPOS>MOLECULE
*****
 31 35 0 0 0
SMALL
GASTEIGER

@<TRIPOS>ATOM
      1 C         143.7271  138.8405  164.8615 C.3     1  UNL1        0.0771
      2 N         143.7219  139.4877  163.5083 N.3     1  UNL1       -0.2695
      3 C         143.0464  138.8078  162.3543 C.3     1  UNL1        0.0938
      4 C         143.0412  139.4550  161.0012 C.3     1  UNL1        0.1081
      5 N         143.7114  140.7821  160.8019 N.pl3   1  UNL1       -0.3046
      6 C         144.3868  141.4620  161.9558 C.3     1  UNL1        0.1081
      7 C         144.3921  140.8148  163.3090 C.3     1  UNL1        0.0938
      8 C         143.7062  141.4292  159.4487 C.ar    1  UNL1        0.0484
      9 C         144.4651  140.8046  158.3157 C.ar    1  UNL1        0.0146
     10 C         144.4599  141.4518  156.9624 C.ar    1  UNL1        0.0018
     11 C         143.6957  142.7236  156.7423 C.ar    1  UNL1        0.0066
     12 C         142.9368  143.3483  157.8754 C.ar    1  UNL1        0.0307
     13 S         142.0988  144.5896  157.9585 S.2     1  UNL1       -0.0864
     14 C         141.5862  144.7096  159.3631 C.ar    1  UNL1        0.0355
     15 C         142.1073  143.5424  160.1480 C.ar    1  UNL1        0.0087
     16 C         142.9420  142.7011  159.2285 C.ar    1  UNL1        0.0198
     17 C         142.5743  139.0508  165.7978 C.3     1  UNL1        0.0497
     18 C         140.2508  137.6245  164.5459 C.3     1  UNL1        0.0520
     19 C         140.2111  139.1139  164.7199 C.ar    1  UNL1        0.0614
     20 N         139.0098  139.8900  164.2679 N.ar    1  UNL1       -0.2343
     21 C         138.9701  141.3794  164.4419 C.ar    1  UNL1        0.1491
     22 N         140.1318  142.0926  165.0679 N.ar    1  UNL1       -0.2824
     23 C         141.3332  141.3163  165.5198 C.ar    1  UNL1        0.2589
     24 O         142.4950  142.0295  166.1458 O.2     1  UNL1       -0.2672
     25 C         141.3729  139.8270  165.3458 C.ar    1  UNL1        0.0489
     26 C         140.0922  143.5819  165.2419 C.3     1  UNL1        0.1103
     27 C         138.8909  144.3580  164.7899 C.3     1  UNL1        0.0276
     28 C         137.7292  143.6449  164.1640 C.3     1  UNL1        0.0390
     29 C         137.7688  142.1556  163.9900 C.3     1  UNL1        0.1668
     30 O         136.6071  141.4424  163.3640 O.3     1  UNL1       -0.3770
     31 H         135.9517  141.2304  164.0470 H       1  UNL1        0.2109
@<TRIPOS>BOND
     1    18    19    1
     2    19    20   ar
     3    20    21   ar
     4    21    22   ar
     5    22    23   ar
     6    23    24    2
     7    23    25   ar
     8    25    17    1
     9    17     1    1
    10     1     2    1
    11     2     3    1
    12     3     4    1
    13     4     5    1
    14     5     8    1
    15     8     9   ar
    16     9    10   ar
    17    10    11   ar
    18    11    12   ar
    19    12    13   ar
    20    13    14   ar
    21    14    15   ar
    22    15    16   ar
    23     5     6    1
    24     6     7    1
    25    22    26    1
    26    26    27    1
    27    27    28    1
    28    28    29    1
    29    29    30    1
    30    25    19   ar
    31     7     2    1
    32    29    21    1
    33    16     8   ar
    34    16    12   ar
    35    30    31    1
@<TRIPOS>MOLECULE
*****
 31 35 0 0 0
SMALL
GASTEIGER

@<TRIPOS>ATOM
      1 C         140.6800  139.4118  158.0336 C.3     1  UNL1        0.0771
      2 N         141.1321  138.1326  157.3939 N.3     1  UNL1       -0.2695
      3 C         140.2317  137.4162  156.4315 C.3     1  UNL1        0.0938
      4 C         140.6838  136.1370  155.7918 C.3     1  UNL1        0.1081
      5 N         142.0362  135.5741  156.1145 N.pl3   1  UNL1       -0.3046
      6 C         142.9366  136.2904  157.0768 C.3     1  UNL1        0.1081
      7 C         142.4845  137.5697  157.7166 C.3     1  UNL1        0.0938
      8 C         142.4883  134.2949  155.4748 C.ar    1  UNL1        0.0484
      9 C         141.9869  133.9199  154.1117 C.ar    1  UNL1        0.0146
     10 C         142.4390  132.6406  153.4720 C.ar    1  UNL1        0.0018
     11 C         143.3925  131.7365  154.1954 C.ar    1  UNL1        0.0066
     12 C         143.8939  132.1115  155.5585 C.ar    1  UNL1        0.0307
     13 S         144.8325  131.4257  156.5065 S.2     1  UNL1       -0.0864
     14 C         144.9605  132.2810  157.7320 C.ar    1  UNL1        0.0355
     15 C         144.1010  133.4955  157.5415 C.ar    1  UNL1        0.0087
     16 C         143.4418  133.3907  156.1982 C.ar    1  UNL1        0.0198
     17 C         139.2391  139.5947  158.4079 C.3     1  UNL1        0.0497
     18 C         138.5947  142.4756  157.8736 C.3     1  UNL1        0.0520
     19 C         138.5462  141.9437  159.2753 C.ar    1  UNL1        0.0614
     20 N         138.1756  142.8522  160.4098 N.ar    1  UNL1       -0.2343
     21 C         138.1271  142.3204  161.8116 C.ar    1  UNL1        0.1491
     22 N         138.4493  140.8799  162.0788 N.ar    1  UNL1       -0.2824
     23 C         138.8200  139.9714  160.9442 C.ar    1  UNL1        0.2589
     24 O         139.1421  138.5310  161.2113 O.2     1  UNL1       -0.2672
     25 C         138.8684  140.5033  159.5425 C.ar    1  UNL1        0.0489
     26 C         138.4008  140.3480  163.4804 C.3     1  UNL1        0.1103
     27 C         138.0302  141.2566  164.6149 C.3     1  UNL1        0.0276
     28 C         137.7080  142.6970  164.3478 C.3     1  UNL1        0.0390
     29 C         137.7565  143.2289  162.9461 C.3     1  UNL1        0.1668
     30 O         137.4343  144.6693  162.6789 O.3     1  UNL1       -0.3770
     31 H         136.4767  144.7702  162.5622 H       1  UNL1        0.2109
@<TRIPOS>BOND
     1    18    19    1
     2    19    20   ar
     3    20    21   ar
     4    21    22   ar
     5    22    23   ar
     6    23    24    2
     7    23    25   ar
     8    25    17    1
     9    17     1    1
    10     1     2    1
    11     2     3    1
    12     3     4    1
    13     4     5    1
    14     5     8    1
    15     8     9   ar
    16     9    10   ar
    17    10    11   ar
    18    11    12   ar
    19    12    13   ar
    20    13    14   ar
    21    14    15   ar
    22    15    16   ar
    23     5     6    1
    24     6     7    1
    25    22    26    1
    26    26    27    1
    27    27    28    1
    28    28    29    1
    29    29    30    1
    30    25    19   ar
    31     7     2    1
    32    29    21    1
    33    16     8   ar
    34    16    12   ar
    35    30    31    1
@<TRIPOS>MOLECULE
*****
 31 35 0 0 0
SMALL
GASTEIGER

@<TRIPOS>ATOM
      1 C         141.5102  137.6278  162.7374 C.3     1  UNL1        0.0771
      2 N         141.2674  138.2884  164.0620 N.3     1  UNL1       -0.2695
      3 C         142.3920  138.4365  165.0436 C.3     1  UNL1        0.0938
      4 C         142.1492  139.0971  166.3682 C.3     1  UNL1        0.1081
      5 N         140.7819  139.6096  166.7113 N.pl3   1  UNL1       -0.3046
      6 C         139.6573  139.4615  165.7298 C.3     1  UNL1        0.1081
      7 C         139.9001  138.8009  164.4051 C.3     1  UNL1        0.0938
      8 C         140.5391  140.2702  168.0359 C.ar    1  UNL1        0.0484
      9 C         139.2468  140.0415  168.7624 C.ar    1  UNL1        0.0146
     10 C         139.0040  140.7021  170.0871 C.ar    1  UNL1        0.0018
     11 C         140.0535  141.5914  170.6852 C.ar    1  UNL1        0.0066
     12 C         141.3458  141.8201  169.9587 C.ar    1  UNL1        0.0307
     13 S         142.5565  142.6381  170.2975 S.2     1  UNL1       -0.0864
     14 C         143.5476  142.4831  169.1823 C.ar    1  UNL1        0.0355
     15 C         142.9494  141.5692  168.1542 C.ar    1  UNL1        0.0087
     16 C         141.5886  141.1595  168.6341 C.ar    1  UNL1        0.0198
     17 C         141.9058  138.4531  161.5491 C.3     1  UNL1        0.0497
     18 C         144.4802  139.8217  162.2556 C.3     1  UNL1        0.0520
     19 C         143.2424  140.6328  162.0106 C.ar    1  UNL1        0.0614
     20 N         143.2917  142.1280  162.1189 N.ar    1  UNL1       -0.2343
     21 C         142.0539  142.9390  161.8739 C.ar    1  UNL1        0.1491
     22 N         140.7666  142.2547  161.5207 N.ar    1  UNL1       -0.2824
     23 C         140.7173  140.7594  161.4124 C.ar    1  UNL1        0.2589
     24 O         139.4301  140.0751  161.0591 O.2     1  UNL1       -0.2672
     25 C         141.9551  139.9485  161.6574 C.ar    1  UNL1        0.0489
     26 C         139.5288  143.0657  161.2757 C.3     1  UNL1        0.1103
     27 C         139.5782  144.5609  161.3840 C.3     1  UNL1        0.0276
     28 C         140.8654  145.2452  161.7373 C.3     1  UNL1        0.0390
     29 C         142.1032  144.4343  161.9822 C.3     1  UNL1        0.1668
     30 O         143.3905  145.1186  162.3355 O.3     1  UNL1       -0.3770
     31 H         143.8555  145.3721  161.5229 H       1  UNL1        0.2109
@<TRIPOS>BOND
     1    18    19    1
     2    19    20   ar
     3    20    21   ar
     4    21    22   ar
     5    22    23   ar
     6    23    24    2
     7    23    25   ar
     8    25    17    1
     9    17     1    1
    10     1     2    1
    11     2     3    1
    12     3     4    1
    13     4     5    1
    14     5     8    1
    15     8     9   ar
    16     9    10   ar
    17    10    11   ar
    18    11    12   ar
    19    12    13   ar
    20    13    14   ar
    21    14    15   ar
    22    15    16   ar
    23     5     6    1
    24     6     7    1
    25    22    26    1
    26    26    27    1
    27    27    28    1
    28    28    29    1
    29    29    30    1
    30    25    19   ar
    31     7     2    1
    32    29    21    1
    33    16     8   ar
    34    16    12   ar
    35    30    31    1
@<TRIPOS>MOLECULE
*****
 31 35 0 0 0
SMALL
GASTEIGER

@<TRIPOS>ATOM
      1 C         141.1538  137.3221  164.1905 C.3     1  UNL1        0.0771
      2 N         140.7786  137.7192  162.7936 N.3     1  UNL1       -0.2695
      3 C         139.3350  137.7619  162.3881 C.3     1  UNL1        0.0938
      4 C         138.9597  138.1590  160.9912 C.3     1  UNL1        0.1081
      5 N         140.0280  138.5133  159.9996 N.pl3   1  UNL1       -0.3046
      6 C         141.4715  138.4705  160.4050 C.3     1  UNL1        0.1081
      7 C         141.8468  138.0735  161.8020 C.3     1  UNL1        0.0938
      8 C         139.6527  138.9104  158.6027 C.ar    1  UNL1        0.0484
      9 C         139.8325  137.9398  157.4732 C.ar    1  UNL1        0.0146
     10 C         139.4572  138.3369  156.0762 C.ar    1  UNL1        0.0018
     11 C         138.9022  139.7045  155.8087 C.ar    1  UNL1        0.0066
     12 C         138.7225  140.6751  156.9382 C.ar    1  UNL1        0.0307
     13 S         138.2031  142.0817  156.9799 S.2     1  UNL1       -0.0864
     14 C         138.2573  142.5539  158.4025 C.ar    1  UNL1        0.0355
     15 C         138.8103  141.4392  159.2402 C.ar    1  UNL1        0.0087
     16 C         139.0977  140.2780  158.3352 C.ar    1  UNL1        0.0198
     17 C         140.9776  138.2940  165.3193 C.3     1  UNL1        0.0497
     18 C         143.4483  139.9373  164.8780 C.3     1  UNL1        0.0520
     19 C         142.0962  140.5837  164.8132 C.ar    1  UNL1        0.0614
     20 N         141.9795  142.0516  164.5277 N.ar    1  UNL1       -0.2343
     21 C         140.6274  142.6979  164.4629 C.ar    1  UNL1        0.1491
     22 N         139.3920  141.8762  164.6836 N.ar    1  UNL1       -0.2824
     23 C         139.5088  140.4082  164.9691 C.ar    1  UNL1        0.2589
     24 O         138.2734  139.5865  165.1897 O.2     1  UNL1       -0.2672
     25 C         140.8608  139.7620  165.0339 C.ar    1  UNL1        0.0489
     26 C         138.0400  142.5225  164.6188 C.3     1  UNL1        0.1103
     27 C         137.9233  143.9904  164.3333 C.3     1  UNL1        0.0276
     28 C         139.1587  144.8121  164.1127 C.3     1  UNL1        0.0390
     29 C         140.5107  144.1658  164.1774 C.3     1  UNL1        0.1668
     30 O         141.7461  144.9875  163.9568 O.3     1  UNL1       -0.3770
     31 H         141.9394  145.0322  163.0073 H       1  UNL1        0.2109
@<TRIPOS>BOND
     1    18    19    1
     2    19    20   ar
     3    20    21   ar
     4    21    22   ar
     5    22    23   ar
     6    23    24    2
     7    23    25   ar
     8    25    17    1
     9    17     1    1
    10     1     2    1
    11     2     3    1
    12     3     4    1
    13     4     5    1
    14     5     8    1
    15     8     9   ar
    16     9    10   ar
    17    10    11   ar
    18    11    12   ar
    19    12    13   ar
    20    13    14   ar
    21    14    15   ar
    22    15    16   ar
    23     5     6    1
    24     6     7    1
    25    22    26    1
    26    26    27    1
    27    27    28    1
    28    28    29    1
    29    29    30    1
    30    25    19   ar
    31     7     2    1
    32    29    21    1
    33    16     8   ar
    34    16    12   ar
    35    30    31    1
