@<TRIPOS>MOLECULE
*****
 31 33 0 0 0
SMALL
GASTEIGER

@<TRIPOS>ATOM
      1 C         141.1071  139.6060  163.7043 C.ar    1  UNL1        0.1245
      2 C         140.2664  138.7659  162.7891 C.ar    1  UNL1        0.0417
      3 C         139.0080  138.1293  163.3001 C.ar    1  UNL1        0.0458
      4 N         138.1674  137.2893  162.3850 N.pl3   1  UNL1       -0.3569
      5 C         138.5903  138.3328  164.7264 C.ar    1  UNL1        0.0417
      6 C         139.4310  139.1728  165.6416 C.ar    1  UNL1        0.1245
      7 N         140.6894  139.8094  165.1305 N.ar    1  UNL1       -0.2288
      8 H         138.4415  137.1558  161.4489 H       1  UNL1        0.1424
      9 H         137.3414  136.8715  162.7204 H       1  UNL1        0.1424
     10 C         143.6240  140.8792  162.6823 C.1     1  UNL1       -0.0378
     11 C         142.3656  140.2426  163.1933 C.1     1  UNL1       -0.0415
     12 C         144.8824  141.5158  162.1712 C.3     1  UNL1        0.2814
     13 O         144.8994  142.9767  161.8315 O.3     1  UNL1       -0.4612
     14 C         139.8136  146.1557  162.0013 C.3     1  UNL1        0.0310
     15 C         141.0850  145.3609  161.9588 C.ar    1  UNL1       -0.0217
     16 C         142.0096  145.3615  163.1399 C.ar    1  UNL1       -0.0011
     17 C         143.2811  144.5668  163.0975 C.ar    1  UNL1        0.0366
     18 C         143.6279  143.7714  161.8740 C.ar    1  UNL1        0.1400
     19 C         142.7033  143.7708  160.6929 C.ar    1  UNL1        0.0366
     20 C         141.4318  144.5656  160.7353 C.ar    1  UNL1       -0.0011
     21 C         139.0133  139.3763  167.0678 C.1     1  UNL1       -0.0415
     22 C         138.5956  139.5797  168.4941 C.1     1  UNL1       -0.0378
     23 C         138.1779  139.7831  169.9203 C.3     1  UNL1        0.2814
     24 O         139.2166  139.9249  170.9931 O.3     1  UNL1       -0.4612
     25 C         140.5109  140.6227  170.6963 C.ar    1  UNL1        0.1400
     26 C         140.5825  142.1204  170.7390 C.ar    1  UNL1        0.0366
     27 C         141.8767  142.8181  170.4422 C.ar    1  UNL1       -0.0011
     28 C         143.0993  142.0182  170.1028 C.ar    1  UNL1       -0.0217
     29 C         144.3936  142.7159  169.8060 C.3     1  UNL1        0.0310
     30 C         143.0277  140.5205  170.0602 C.ar    1  UNL1       -0.0011
     31 C         141.7335  139.8227  170.3569 C.ar    1  UNL1        0.0366
@<TRIPOS>BOND
     1    14    15    1
     2    15    16   ar
     3    16    17   ar
     4    17    18   ar
     5    18    13    1
     6    13    12    1
     7    12    10    1
     8    10    11    3
     9    11     1    1
    10     1     2   ar
    11     2     3   ar
    12     3     4    1
    13     3     5   ar
    14     5     6   ar
    15     6    21    1
    16    21    22    3
    17    22    23    1
    18    23    24    1
    19    24    25    1
    20    25    26   ar
    21    26    27   ar
    22    27    28   ar
    23    28    29    1
    24    28    30   ar
    25    30    31   ar
    26     6     7   ar
    27    18    19   ar
    28    19    20   ar
    29    20    15   ar
    30     7     1   ar
    31    31    25   ar
    32     4     8    1
    33     4     9    1
@<TRIPOS>MOLECULE
*****
 31 33 0 0 0
SMALL
GASTEIGER

@<TRIPOS>ATOM
      1 C         140.8328  145.1024  160.6331 C.ar    1  UNL1        0.1245
      2 C         139.7995  145.4509  161.6631 C.ar    1  UNL1        0.0417
      3 C         139.9931  145.0334  163.0908 C.ar    1  UNL1        0.0458
      4 N         138.9598  145.3819  164.1208 N.pl3   1  UNL1       -0.3569
      5 C         141.2200  144.2675  163.4884 C.ar    1  UNL1        0.0417
      6 C         142.2532  143.9190  162.4584 C.ar    1  UNL1        0.1245
      7 N         142.0596  144.3365  161.0308 N.ar    1  UNL1       -0.2288
      8 H         138.1546  145.8846  163.8598 H       1  UNL1        0.1424
      9 H         139.0869  145.1079  165.0578 H       1  UNL1        0.1424
     10 C         140.4456  145.9374  157.7777 C.1     1  UNL1       -0.0378
     11 C         140.6392  145.5199  159.2054 C.1     1  UNL1       -0.0415
     12 C         140.2521  146.3549  156.3501 C.3     1  UNL1        0.2814
     13 O         138.9834  147.0384  155.9340 O.3     1  UNL1       -0.4612
     14 C         139.1246  152.7286  154.0362 C.3     1  UNL1        0.0310
     15 C         139.0893  151.3061  154.5106 C.ar    1  UNL1       -0.0217
     16 C         139.6875  150.2192  153.6676 C.ar    1  UNL1       -0.0011
     17 C         139.6522  148.7966  154.1420 C.ar    1  UNL1        0.0366
     18 C         139.0187  148.4610  155.4595 C.ar    1  UNL1        0.1400
     19 C         138.4205  149.5478  156.3026 C.ar    1  UNL1        0.0366
     20 C         138.4558  150.9704  155.8282 C.ar    1  UNL1       -0.0011
     21 C         143.4801  143.1531  162.8561 C.1     1  UNL1       -0.0415
     22 C         144.7070  142.3872  163.2538 C.1     1  UNL1       -0.0378
     23 C         145.9338  141.6213  163.6515 C.3     1  UNL1        0.2814
     24 O         145.8014  140.2593  164.2658 O.3     1  UNL1       -0.4612
     25 C         144.5251  139.4867  164.1091 C.ar    1  UNL1        0.1400
     26 C         143.6552  139.2256  165.3028 C.ar    1  UNL1        0.0366
     27 C         142.3790  138.4531  165.1462 C.ar    1  UNL1       -0.0011
     28 C         141.9728  137.9417  163.7958 C.ar    1  UNL1       -0.0217
     29 C         140.6966  137.1691  163.6391 C.3     1  UNL1        0.0310
     30 C         142.8428  138.2028  162.6021 C.ar    1  UNL1       -0.0011
     31 C         144.1190  138.9753  162.7588 C.ar    1  UNL1        0.0366
@<TRIPOS>BOND
     1    14    15    1
     2    15    16   ar
     3    16    17   ar
     4    17    18   ar
     5    18    13    1
     6    13    12    1
     7    12    10    1
     8    10    11    3
     9    11     1    1
    10     1     2   ar
    11     2     3   ar
    12     3     4    1
    13     3     5   ar
    14     5     6   ar
    15     6    21    1
    16    21    22    3
    17    22    23    1
    18    23    24    1
    19    24    25    1
    20    25    26   ar
    21    26    27   ar
    22    27    28   ar
    23    28    29    1
    24    28    30   ar
    25    30    31   ar
    26     6     7   ar
    27    18    19   ar
    28    19    20   ar
    29    20    15   ar
    30     7     1   ar
    31    31    25   ar
    32     4     8    1
    33     4     9    1
@<TRIPOS>MOLECULE
*****
 31 33 0 0 0
SMALL
GASTEIGER

@<TRIPOS>ATOM
      1 C         139.1916  143.3236  158.3144 C.ar    1  UNL1        0.1245
      2 C         140.3721  143.9466  157.6300 C.ar    1  UNL1        0.0417
      3 C         141.4502  144.6013  158.4418 C.ar    1  UNL1        0.0458
      4 N         142.6307  145.2243  157.7575 N.pl3   1  UNL1       -0.3569
      5 C         141.3478  144.6330  159.9381 C.ar    1  UNL1        0.0417
      6 C         140.1673  144.0101  160.6224 C.ar    1  UNL1        0.1245
      7 N         139.0892  143.3554  159.8106 N.ar    1  UNL1       -0.2288
      8 H         142.6979  145.2035  156.7755 H       1  UNL1        0.1424
      9 H         143.3383  145.6540  158.2903 H       1  UNL1        0.1424
     10 C         137.0353  142.0142  156.6908 C.1     1  UNL1       -0.0378
     11 C         138.1135  142.6689  157.5026 C.1     1  UNL1       -0.0415
     12 C         135.9572  141.3595  155.8790 C.3     1  UNL1        0.2814
     13 O         135.3104  140.0982  156.3695 O.3     1  UNL1       -0.4612
     14 C         129.3589  139.8639  157.0934 C.3     1  UNL1        0.0310
     15 C         130.8468  139.9225  156.9124 C.ar    1  UNL1       -0.0217
     16 C         131.7357  139.0162  157.7114 C.ar    1  UNL1       -0.0011
     17 C         133.2236  139.0748  157.5304 C.ar    1  UNL1        0.0366
     18 C         133.8225  140.0396  156.5504 C.ar    1  UNL1        0.1400
     19 C         132.9336  140.9458  155.7515 C.ar    1  UNL1        0.0366
     20 C         131.4457  140.8873  155.9324 C.ar    1  UNL1       -0.0011
     21 C         140.0650  144.0418  162.1185 C.1     1  UNL1       -0.0415
     22 C         139.9626  144.0735  163.6147 C.1     1  UNL1       -0.0378
     23 C         139.8602  144.1053  165.1109 C.3     1  UNL1        0.2814
     24 O         140.5050  143.0266  165.9298 O.3     1  UNL1       -0.4612
     25 C         139.7816  141.7350  166.1718 C.ar    1  UNL1        0.1400
     26 C         138.8932  141.1621  165.1075 C.ar    1  UNL1        0.0366
     27 C         138.1698  139.8706  165.3494 C.ar    1  UNL1       -0.0011
     28 C         138.3347  139.1519  166.6556 C.ar    1  UNL1       -0.0217
     29 C         137.6113  137.8603  166.8976 C.3     1  UNL1        0.0310
     30 C         139.2231  139.7247  167.7199 C.ar    1  UNL1       -0.0011
     31 C         139.9465  141.0163  167.4780 C.ar    1  UNL1        0.0366
@<TRIPOS>BOND
     1    14    15    1
     2    15    16   ar
     3    16    17   ar
     4    17    18   ar
     5    18    13    1
     6    13    12    1
     7    12    10    1
     8    10    11    3
     9    11     1    1
    10     1     2   ar
    11     2     3   ar
    12     3     4    1
    13     3     5   ar
    14     5     6   ar
    15     6    21    1
    16    21    22    3
    17    22    23    1
    18    23    24    1
    19    24    25    1
    20    25    26   ar
    21    26    27   ar
    22    27    28   ar
    23    28    29    1
    24    28    30   ar
    25    30    31   ar
    26     6     7   ar
    27    18    19   ar
    28    19    20   ar
    29    20    15   ar
    30     7     1   ar
    31    31    25   ar
    32     4     8    1
    33     4     9    1
@<TRIPOS>MOLECULE
*****
 31 33 0 0 0
SMALL
GASTEIGER

@<TRIPOS>ATOM
      1 C         139.2690  143.5691  158.3133 C.ar    1  UNL1        0.1245
      2 C         140.3914  144.3511  157.6978 C.ar    1  UNL1        0.0417
      3 C         141.3358  145.1221  158.5716 C.ar    1  UNL1        0.0458
      4 N         142.4581  145.9041  157.9562 N.pl3   1  UNL1       -0.3569
      5 C         141.1578  145.1112  160.0611 C.ar    1  UNL1        0.0417
      6 C         140.0355  144.3292  160.6765 C.ar    1  UNL1        0.1245
      7 N         139.0911  143.5581  159.8027 N.ar    1  UNL1       -0.2288
      8 H         142.5749  145.9113  156.9786 H       1  UNL1        0.1424
      9 H         143.0779  146.4102  158.5297 H       1  UNL1        0.1424
     10 C         137.3803  142.0270  156.5656 C.1     1  UNL1       -0.0378
     11 C         138.3246  142.7980  157.4395 C.1     1  UNL1       -0.0415
     12 C         136.4359  141.2559  155.6918 C.3     1  UNL1        0.2814
     13 O         135.6029  140.1542  156.2767 O.3     1  UNL1       -0.4612
     14 C         129.6188  140.5911  156.2713 C.3     1  UNL1        0.0310
     15 C         131.1149  140.4819  156.2727 C.ar    1  UNL1       -0.0217
     16 C         131.9323  141.3677  155.3799 C.ar    1  UNL1       -0.0011
     17 C         133.4284  141.2584  155.3813 C.ar    1  UNL1        0.0366
     18 C         134.1069  140.2634  156.2754 C.ar    1  UNL1        0.1400
     19 C         133.2894  139.3776  157.1681 C.ar    1  UNL1        0.0366
     20 C         131.7934  139.4869  157.1668 C.ar    1  UNL1       -0.0011
     21 C         139.8575  144.3183  162.1659 C.1     1  UNL1       -0.0415
     22 C         139.6796  144.3073  163.6553 C.1     1  UNL1       -0.0378
     23 C         139.5016  144.2964  165.1446 C.3     1  UNL1        0.2814
     24 O         139.6047  143.0063  165.9028 O.3     1  UNL1       -0.4612
     25 C         140.6946  142.8168  166.9159 C.ar    1  UNL1        0.1400
     26 C         142.0669  142.4038  166.4728 C.ar    1  UNL1        0.0366
     27 C         143.1567  142.2142  167.4858 C.ar    1  UNL1       -0.0011
     28 C         142.8743  142.4377  168.9419 C.ar    1  UNL1       -0.0217
     29 C         143.9643  142.2482  169.9550 C.3     1  UNL1        0.0310
     30 C         141.5021  142.8507  169.3850 C.ar    1  UNL1       -0.0011
     31 C         140.4122  143.0402  168.3720 C.ar    1  UNL1        0.0366
@<TRIPOS>BOND
     1    14    15    1
     2    15    16   ar
     3    16    17   ar
     4    17    18   ar
     5    18    13    1
     6    13    12    1
     7    12    10    1
     8    10    11    3
     9    11     1    1
    10     1     2   ar
    11     2     3   ar
    12     3     4    1
    13     3     5   ar
    14     5     6   ar
    15     6    21    1
    16    21    22    3
    17    22    23    1
    18    23    24    1
    19    24    25    1
    20    25    26   ar
    21    26    27   ar
    22    27    28   ar
    23    28    29    1
    24    28    30   ar
    25    30    31   ar
    26     6     7   ar
    27    18    19   ar
    28    19    20   ar
    29    20    15   ar
    30     7     1   ar
    31    31    25   ar
    32     4     8    1
    33     4     9    1
@<TRIPOS>MOLECULE
*****
 31 33 0 0 0
SMALL
GASTEIGER

@<TRIPOS>ATOM
      1 C         143.1660  139.5821  161.6143 C.ar    1  UNL1        0.1245
      2 C         144.4514  140.2478  162.0078 C.ar    1  UNL1        0.0417
      3 C         144.6406  140.7431  163.4110 C.ar    1  UNL1        0.0458
      4 N         145.9258  141.4088  163.8045 N.pl3   1  UNL1       -0.3569
      5 C         143.5444  140.5727  164.4207 C.ar    1  UNL1        0.0417
      6 C         142.2591  139.9070  164.0271 C.ar    1  UNL1        0.1245
      7 N         142.0699  139.4118  162.6240 N.ar    1  UNL1       -0.2288
      8 H         146.6453  141.5206  163.1418 H       1  UNL1        0.1424
      9 H         146.0500  141.7338  164.7255 H       1  UNL1        0.1424
     10 C         142.7877  138.5916  158.8079 C.1     1  UNL1       -0.0378
     11 C         142.9768  139.0869  160.2111 C.1     1  UNL1       -0.0415
     12 C         142.5985  138.0963  157.4048 C.3     1  UNL1        0.2814
     13 O         143.6344  137.2129  156.7752 O.3     1  UNL1       -0.4612
     14 C         142.0782  131.8384  154.6087 C.3     1  UNL1        0.0310
     15 C         142.4673  133.1820  155.1503 C.ar    1  UNL1       -0.0217
     16 C         142.8578  133.3253  156.5915 C.ar    1  UNL1       -0.0011
     17 C         143.2468  134.6689  157.1331 C.ar    1  UNL1        0.0366
     18 C         143.2453  135.8693  156.2336 C.ar    1  UNL1        0.1400
     19 C         142.8548  135.7260  154.7924 C.ar    1  UNL1        0.0366
     20 C         142.4658  134.3824  154.2508 C.ar    1  UNL1       -0.0011
     21 C         141.1630  139.7367  165.0368 C.1     1  UNL1       -0.0415
     22 C         140.0668  139.5663  166.0465 C.1     1  UNL1       -0.0378
     23 C         138.9707  139.3959  167.0562 C.3     1  UNL1        0.2814
     24 O         139.2210  139.7259  168.4979 O.3     1  UNL1       -0.4612
     25 C         140.4757  140.4454  168.8957 C.ar    1  UNL1        0.1400
     26 C         141.6494  139.6725  169.4201 C.ar    1  UNL1        0.0366
     27 C         142.9040  140.3919  169.8179 C.ar    1  UNL1       -0.0011
     28 C         142.9849  141.8843  169.6913 C.ar    1  UNL1       -0.0217
     29 C         144.2396  142.6039  170.0891 C.3     1  UNL1        0.0310
     30 C         141.8112  142.6573  169.1669 C.ar    1  UNL1       -0.0011
     31 C         140.5566  141.9378  168.7691 C.ar    1  UNL1        0.0366
@<TRIPOS>BOND
     1    14    15    1
     2    15    16   ar
     3    16    17   ar
     4    17    18   ar
     5    18    13    1
     6    13    12    1
     7    12    10    1
     8    10    11    3
     9    11     1    1
    10     1     2   ar
    11     2     3   ar
    12     3     4    1
    13     3     5   ar
    14     5     6   ar
    15     6    21    1
    16    21    22    3
    17    22    23    1
    18    23    24    1
    19    24    25    1
    20    25    26   ar
    21    26    27   ar
    22    27    28   ar
    23    28    29    1
    24    28    30   ar
    25    30    31   ar
    26     6     7   ar
    27    18    19   ar
    28    19    20   ar
    29    20    15   ar
    30     7     1   ar
    31    31    25   ar
    32     4     8    1
    33     4     9    1
@<TRIPOS>MOLECULE
*****
 31 33 0 0 0
SMALL
GASTEIGER

@<TRIPOS>ATOM
      1 C         140.2860  144.3923  160.0027 C.ar    1  UNL1        0.1245
      2 C         141.0753  145.3400  159.1489 C.ar    1  UNL1        0.0417
      3 C         140.8173  145.4124  157.6730 C.ar    1  UNL1        0.0458
      4 N         141.6065  146.3600  156.8192 N.pl3   1  UNL1       -0.3569
      5 C         139.7699  144.5370  157.0510 C.ar    1  UNL1        0.0417
      6 C         138.9806  143.5894  157.9048 C.ar    1  UNL1        0.1245
      7 N         139.2387  143.5170  159.3807 N.ar    1  UNL1       -0.2288
      8 H         142.2939  146.9345  157.2275 H       1  UNL1        0.1424
      9 H         141.4371  146.4075  155.8506 H       1  UNL1        0.1424
     10 C         140.8022  144.2476  162.9544 C.1     1  UNL1       -0.0378
     11 C         140.5441  144.3199  161.4786 C.1     1  UNL1       -0.0415
     12 C         141.0602  144.1752  164.4303 C.3     1  UNL1        0.2814
     13 O         139.9326  143.8834  165.3754 O.3     1  UNL1       -0.4612
     14 C         138.1596  138.2222  166.2735 C.3     1  UNL1        0.0310
     15 C         138.6028  139.6375  166.0490 C.ar    1  UNL1       -0.0217
     16 C         138.0230  140.4346  164.9183 C.ar    1  UNL1       -0.0011
     17 C         138.4663  141.8499  164.6938 C.ar    1  UNL1        0.0366
     18 C         139.4894  142.4681  165.5999 C.ar    1  UNL1        0.1400
     19 C         140.0692  141.6710  166.7306 C.ar    1  UNL1        0.0366
     20 C         139.6259  140.2557  166.9551 C.ar    1  UNL1       -0.0011
     21 C         137.9333  142.7142  157.2828 C.1     1  UNL1       -0.0415
     22 C         136.8859  141.8389  156.6607 C.1     1  UNL1       -0.0378
     23 C         135.8386  140.9636  156.0387 C.3     1  UNL1        0.2814
     24 O         135.1366  139.9291  156.8676 O.3     1  UNL1       -0.4612
     25 C         133.6380  139.8646  156.8752 C.ar    1  UNL1        0.1400
     26 C         132.9352  138.8529  157.7311 C.ar    1  UNL1        0.0366
     27 C         131.4366  138.7884  157.7387 C.ar    1  UNL1       -0.0011
     28 C         130.6409  139.7356  156.8905 C.ar    1  UNL1       -0.0217
     29 C         129.1422  139.6711  156.8981 C.3     1  UNL1        0.0310
     30 C         131.3437  140.7472  156.0346 C.ar    1  UNL1       -0.0011
     31 C         132.8422  140.8118  156.0269 C.ar    1  UNL1        0.0366
@<TRIPOS>BOND
     1    14    15    1
     2    15    16   ar
     3    16    17   ar
     4    17    18   ar
     5    18    13    1
     6    13    12    1
     7    12    10    1
     8    10    11    3
     9    11     1    1
    10     1     2   ar
    11     2     3   ar
    12     3     4    1
    13     3     5   ar
    14     5     6   ar
    15     6    21    1
    16    21    22    3
    17    22    23    1
    18    23    24    1
    19    24    25    1
    20    25    26   ar
    21    26    27   ar
    22    27    28   ar
    23    28    29    1
    24    28    30   ar
    25    30    31   ar
    26     6     7   ar
    27    18    19   ar
    28    19    20   ar
    29    20    15   ar
    30     7     1   ar
    31    31    25   ar
    32     4     8    1
    33     4     9    1
@<TRIPOS>MOLECULE
*****
 31 33 0 0 0
SMALL
GASTEIGER

@<TRIPOS>ATOM
      1 C         140.3426  144.6259  159.2767 C.ar    1  UNL1        0.1245
      2 C         140.7631  145.4736  160.4406 C.ar    1  UNL1        0.0417
      3 C         140.5371  144.9887  161.8420 C.ar    1  UNL1        0.0458
      4 N         140.9577  145.8363  163.0059 N.pl3   1  UNL1       -0.3569
      5 C         139.8906  143.6562  162.0795 C.ar    1  UNL1        0.0417
      6 C         139.4701  142.8085  160.9156 C.ar    1  UNL1        0.1245
      7 N         139.6961  143.2934  159.5142 N.ar    1  UNL1       -0.2288
      8 H         141.3820  146.7109  162.8500 H       1  UNL1        0.1424
      9 H         140.8093  145.5181  163.9256 H       1  UNL1        0.1424
     10 C         140.7946  145.5956  156.4740 C.1     1  UNL1       -0.0378
     11 C         140.5686  145.1107  157.8754 C.1     1  UNL1       -0.0415
     12 C         141.0206  146.0804  155.0726 C.3     1  UNL1        0.2814
     13 O         139.8907  146.6936  154.2998 O.3     1  UNL1       -0.4612
     14 C         138.5373  152.4900  155.0544 C.3     1  UNL1        0.0310
     15 C         138.8756  151.0409  154.8658 C.ar    1  UNL1       -0.0217
     16 C         139.6419  150.6013  153.6535 C.ar    1  UNL1       -0.0011
     17 C         139.9803  149.1522  153.4649 C.ar    1  UNL1        0.0366
     18 C         139.5524  148.1427  154.4884 C.ar    1  UNL1        0.1400
     19 C         138.7861  148.5823  155.7006 C.ar    1  UNL1        0.0366
     20 C         138.4477  150.0314  155.8893 C.ar    1  UNL1       -0.0011
     21 C         138.8235  141.4761  161.1531 C.1     1  UNL1       -0.0415
     22 C         138.1770  140.1435  161.3906 C.1     1  UNL1       -0.0378
     23 C         137.5305  138.8110  161.6281 C.3     1  UNL1        0.2814
     24 O         138.3610  137.6423  162.0691 O.3     1  UNL1       -0.4612
     25 C         139.5717  137.8636  162.9266 C.ar    1  UNL1        0.1400
     26 C         139.4118  138.1503  164.3903 C.ar    1  UNL1        0.0366
     27 C         140.6224  138.3716  165.2478 C.ar    1  UNL1       -0.0011
     28 C         141.9929  138.3062  164.6417 C.ar    1  UNL1       -0.0217
     29 C         143.2036  138.5275  165.4993 C.3     1  UNL1        0.0310
     30 C         142.1528  138.0195  163.1781 C.ar    1  UNL1       -0.0011
     31 C         140.9422  137.7982  162.3205 C.ar    1  UNL1        0.0366
@<TRIPOS>BOND
     1    14    15    1
     2    15    16   ar
     3    16    17   ar
     4    17    18   ar
     5    18    13    1
     6    13    12    1
     7    12    10    1
     8    10    11    3
     9    11     1    1
    10     1     2   ar
    11     2     3   ar
    12     3     4    1
    13     3     5   ar
    14     5     6   ar
    15     6    21    1
    16    21    22    3
    17    22    23    1
    18    23    24    1
    19    24    25    1
    20    25    26   ar
    21    26    27   ar
    22    27    28   ar
    23    28    29    1
    24    28    30   ar
    25    30    31   ar
    26     6     7   ar
    27    18    19   ar
    28    19    20   ar
    29    20    15   ar
    30     7     1   ar
    31    31    25   ar
    32     4     8    1
    33     4     9    1
@<TRIPOS>MOLECULE
*****
 31 33 0 0 0
SMALL
GASTEIGER

@<TRIPOS>ATOM
      1 C         140.8137  142.3054  161.5189 C.ar    1  UNL1        0.1245
      2 C         141.0020  143.0978  162.7786 C.ar    1  UNL1        0.0417
      3 C         140.9930  144.5970  162.7299 C.ar    1  UNL1        0.0458
      4 N         141.1813  145.3894  163.9895 N.pl3   1  UNL1       -0.3569
      5 C         140.7958  145.3038  161.4216 C.ar    1  UNL1        0.0417
      6 C         140.6075  144.5113  160.1620 C.ar    1  UNL1        0.1245
      7 N         140.6165  143.0121  160.2107 N.ar    1  UNL1       -0.2288
      8 H         141.3107  144.9256  164.8481 H       1  UNL1        0.1424
      9 H         141.1754  146.3734  163.9575 H       1  UNL1        0.1424
     10 C         140.8316  139.3070  161.6163 C.1     1  UNL1       -0.0378
     11 C         140.8226  140.8062  161.5676 C.1     1  UNL1       -0.0415
     12 C         140.8405  137.8078  161.6650 C.3     1  UNL1        0.2814
     13 O         140.7707  137.0999  162.9855 O.3     1  UNL1       -0.4612
     14 C         139.4476  140.1689  167.9685 C.3     1  UNL1        0.0310
     15 C         139.7783  139.4017  166.7228 C.ar    1  UNL1       -0.0217
     16 C         138.6847  138.7447  165.9340 C.ar    1  UNL1       -0.0011
     17 C         139.0155  137.9774  164.6882 C.ar    1  UNL1        0.0366
     18 C         140.4399  137.8672  164.2313 C.ar    1  UNL1        0.1400
     19 C         141.5335  138.5242  165.0200 C.ar    1  UNL1        0.0366
     20 C         141.2028  139.2914  166.2658 C.ar    1  UNL1       -0.0011
     21 C         140.4103  145.2181  158.8538 C.1     1  UNL1       -0.0415
     22 C         140.2130  145.9249  157.5455 C.1     1  UNL1       -0.0378
     23 C         140.0158  146.6317  156.2372 C.3     1  UNL1        0.2814
     24 O         138.8038  147.4891  156.0232 O.3     1  UNL1       -0.4612
     25 C         138.9432  148.8384  155.3828 C.ar    1  UNL1        0.1400
     26 C         138.3883  150.0534  156.0652 C.ar    1  UNL1        0.0366
     27 C         138.5277  151.4027  155.4248 C.ar    1  UNL1       -0.0011
     28 C         139.2220  151.5368  154.1020 C.ar    1  UNL1       -0.0217
     29 C         139.3614  152.8861  153.4616 C.3     1  UNL1        0.0310
     30 C         139.7769  150.3218  153.4196 C.ar    1  UNL1       -0.0011
     31 C         139.6375  148.9726  154.0600 C.ar    1  UNL1        0.0366
@<TRIPOS>BOND
     1    14    15    1
     2    15    16   ar
     3    16    17   ar
     4    17    18   ar
     5    18    13    1
     6    13    12    1
     7    12    10    1
     8    10    11    3
     9    11     1    1
    10     1     2   ar
    11     2     3   ar
    12     3     4    1
    13     3     5   ar
    14     5     6   ar
    15     6    21    1
    16    21    22    3
    17    22    23    1
    18    23    24    1
    19    24    25    1
    20    25    26   ar
    21    26    27   ar
    22    27    28   ar
    23    28    29    1
    24    28    30   ar
    25    30    31   ar
    26     6     7   ar
    27    18    19   ar
    28    19    20   ar
    29    20    15   ar
    30     7     1   ar
    31    31    25   ar
    32     4     8    1
    33     4     9    1
@<TRIPOS>MOLECULE
*****
 31 33 0 0 0
SMALL
GASTEIGER

@<TRIPOS>ATOM
      1 C         140.0397  144.2954  159.3221 C.ar    1  UNL1        0.1245
      2 C         140.4683  145.2894  160.3606 C.ar    1  UNL1        0.0417
      3 C         140.6304  144.8595  161.7885 C.ar    1  UNL1        0.0458
      4 N         141.0590  145.8534  162.8270 N.pl3   1  UNL1       -0.3569
      5 C         140.3640  143.4356  162.1779 C.ar    1  UNL1        0.0417
      6 C         139.9354  142.4417  161.1395 C.ar    1  UNL1        0.1245
      7 N         139.7733  142.8716  159.7116 N.ar    1  UNL1       -0.2288
      8 H         141.2339  146.7880  162.5714 H       1  UNL1        0.1424
      9 H         141.1654  145.5713  163.7641 H       1  UNL1        0.1424
     10 C         139.7155  145.1552  156.4663 C.1     1  UNL1       -0.0378
     11 C         139.8776  144.7253  157.8942 C.1     1  UNL1       -0.0415
     12 C         139.5533  145.5851  155.0384 C.3     1  UNL1        0.2814
     13 O         140.3952  146.6990  154.4903 O.3     1  UNL1       -0.4612
     14 C         138.4641  152.3692  154.8370 C.3     1  UNL1        0.0310
     15 C         138.9469  150.9516  154.7503 C.ar    1  UNL1       -0.0217
     16 C         138.4646  149.9332  155.7403 C.ar    1  UNL1       -0.0011
     17 C         138.9473  148.5157  155.6536 C.ar    1  UNL1        0.0366
     18 C         139.9125  148.1165  154.5770 C.ar    1  UNL1        0.1400
     19 C         140.3948  149.1350  153.5870 C.ar    1  UNL1        0.0366
     20 C         139.9120  150.5525  153.6737 C.ar    1  UNL1       -0.0011
     21 C         139.6690  141.0179  161.5289 C.1     1  UNL1       -0.0415
     22 C         139.4025  139.5940  161.9183 C.1     1  UNL1       -0.0378
     23 C         139.1361  138.1702  162.3078 C.3     1  UNL1        0.2814
     24 O         139.8010  137.5870  163.5193 O.3     1  UNL1       -0.4612
     25 C         139.7251  138.3040  164.8347 C.ar    1  UNL1        0.1400
     26 C         140.9175  139.0543  165.3498 C.ar    1  UNL1        0.0366
     27 C         140.8416  139.7713  166.6651 C.ar    1  UNL1       -0.0011
     28 C         139.5734  139.7380  167.4653 C.ar    1  UNL1       -0.0217
     29 C         139.4975  140.4550  168.7808 C.3     1  UNL1        0.0310
     30 C         138.3811  138.9877  166.9503 C.ar    1  UNL1       -0.0011
     31 C         138.4569  138.2707  165.6350 C.ar    1  UNL1        0.0366
@<TRIPOS>BOND
     1    14    15    1
     2    15    16   ar
     3    16    17   ar
     4    17    18   ar
     5    18    13    1
     6    13    12    1
     7    12    10    1
     8    10    11    3
     9    11     1    1
    10     1     2   ar
    11     2     3   ar
    12     3     4    1
    13     3     5   ar
    14     5     6   ar
    15     6    21    1
    16    21    22    3
    17    22    23    1
    18    23    24    1
    19    24    25    1
    20    25    26   ar
    21    26    27   ar
    22    27    28   ar
    23    28    29    1
    24    28    30   ar
    25    30    31   ar
    26     6     7   ar
    27    18    19   ar
    28    19    20   ar
    29    20    15   ar
    30     7     1   ar
    31    31    25   ar
    32     4     8    1
    33     4     9    1
