@<TRIPOS>MOLECULE
*****
 28 31 0 0 0
SMALL
GASTEIGER

@<TRIPOS>ATOM
      1 C         137.8135  142.0650  163.5026 C.ar    1  UNL1        0.2212
      2 N         138.6315  141.4204  164.5821 N.ar    1  UNL1       -0.1948
      3 C         139.0003  139.9701  164.4787 C.ar    1  UNL1        0.1667
      4 C         138.5510  139.1645  163.2959 C.ar    1  UNL1        0.1117
      5 C         139.0638  137.7652  163.4663 C.ar    1  UNL1        0.0968
      6 N         139.8300  137.7061  164.7545 N.ar    1  UNL1       -0.2924
      7 N         139.7908  139.0688  165.3802 N.ar    1  UNL1       -0.2587
      8 C         137.7330  139.8091  162.2164 C.ar    1  UNL1        0.2860
      9 O         137.2837  139.0035  161.0335 O.2     1  UNL1       -0.2650
     10 N         137.3643  141.2595  162.3198 N.ar    1  UNL1       -0.1749
     11 H         140.2797  136.9122  165.1243 H       1  UNL1        0.1871
     12 C         140.4298  139.4612  166.6793 C.3     1  UNL1        0.1046
     13 C         141.9019  139.4845  166.9662 C.3     1  UNL1        0.0243
     14 C         142.0908  139.9369  168.3838 C.3     1  UNL1        0.0021
     15 C         140.7354  140.1932  168.9731 C.3     1  UNL1        0.0021
     16 C         139.7089  139.8992  167.9196 C.3     1  UNL1        0.0243
     17 N         137.4448  143.5154  163.6060 N.pl3   1  UNL1       -0.2968
     18 H         136.5351  143.8100  163.3716 H       1  UNL1        0.1500
     19 C         138.4239  145.0312  165.4751 C.3     1  UNL1        0.0312
     20 C         138.4621  144.5168  164.0666 C.3     1  UNL1        0.1490
     21 C         139.5177  145.0039  163.1187 C.2     1  UNL1        0.2436
     22 O         139.1428  145.8970  161.9733 O.2     1  UNL1       -0.2731
     23 N         140.9482  144.5981  163.3162 N.am    1  UNL1       -0.2753
     24 C         141.4711  143.7149  164.4100 C.3     1  UNL1        0.0964
     25 C         142.9529  143.5751  164.2243 C.3     1  UNL1        0.0585
     26 C         143.3459  144.3719  163.0158 C.3     1  UNL1        0.1824
     27 F         144.7342  144.5119  162.4652 F       1  UNL1       -0.2354
     28 C         142.1069  145.0042  162.4545 C.3     1  UNL1        0.1286
@<TRIPOS>BOND
     1    20    19    1
     2    20    17    1
     3    17     1    1
     4     1     2   ar
     5     2     3   ar
     6     3     4    1
     7     4     5   ar
     8     5     6   ar
     9     6     7   ar
    10     7    12    1
    11    12    13    1
    12    13    14    1
    13    14    15    1
    14    15    16    1
    15     4     8   ar
    16     8     9    2
    17     8    10   ar
    18    20    21    1
    19    21    22    2
    20    21    23   am
    21    23    24    1
    22    24    25    1
    23    25    26    1
    24    26    27    1
    25    26    28    1
    26    10     1   ar
    27    28    23    1
    28     7     3   ar
    29    16    12    1
    30    17    18    1
    31     6    11    1
@<TRIPOS>MOLECULE
*****
 28 31 0 0 0
SMALL
GASTEIGER

@<TRIPOS>ATOM
      1 C         142.0583  143.2766  164.3997 C.ar    1  UNL1        0.2212
      2 N         141.3723  141.9989  164.7832 N.ar    1  UNL1       -0.1948
      3 C         142.1643  140.7314  164.9104 C.ar    1  UNL1        0.1667
      4 C         143.6422  140.7415  164.6541 C.ar    1  UNL1        0.1117
      5 C         144.1571  139.3471  164.8553 C.ar    1  UNL1        0.0968
      6 N         142.9974  138.4752  165.2359 N.ar    1  UNL1       -0.2924
      7 N         141.7658  139.3307  165.2699 N.ar    1  UNL1       -0.2587
      8 C         144.3282  142.0192  164.2706 C.ar    1  UNL1        0.2860
      9 O         145.8061  142.0294  164.0144 O.2     1  UNL1       -0.2650
     10 N         143.5361  143.2867  164.1435 N.ar    1  UNL1       -0.1749
     11 H         143.0376  137.5108  165.4294 H       1  UNL1        0.1871
     12 C         140.3791  138.8670  165.6048 C.3     1  UNL1        0.1046
     13 C         139.6857  137.6699  165.0249 C.3     1  UNL1        0.0243
     14 C         138.3205  137.5820  165.6401 C.3     1  UNL1        0.0021
     15 C         138.1701  138.7247  166.6001 C.3     1  UNL1        0.0021
     16 C         139.4425  139.5188  166.5783 C.3     1  UNL1        0.0243
     17 N         141.2663  144.5441  164.2726 N.pl3   1  UNL1       -0.2968
     18 H         141.7170  145.4160  164.3492 H       1  UNL1        0.1500
     19 C         138.8311  144.8616  165.1205 C.3     1  UNL1        0.0312
     20 C         139.7875  144.4831  164.0287 C.3     1  UNL1        0.1490
     21 C         139.2650  144.0436  162.6930 C.2     1  UNL1        0.2436
     22 O         139.3395  144.9711  161.5165 O.2     1  UNL1       -0.2731
     23 N         138.6681  142.6768  162.5339 N.am    1  UNL1       -0.2753
     24 C         138.5266  141.6454  163.6138 C.3     1  UNL1        0.0964
     25 C         137.8790  140.4325  163.0142 C.3     1  UNL1        0.0585
     26 C         137.6203  140.7142  161.5638 C.3     1  UNL1        0.1824
     27 F         136.9854  139.7740  160.5826 F       1  UNL1       -0.2354
     28 C         138.1081  142.1013  161.2670 C.3     1  UNL1        0.1286
@<TRIPOS>BOND
     1    20    19    1
     2    20    17    1
     3    17     1    1
     4     1     2   ar
     5     2     3   ar
     6     3     4    1
     7     4     5   ar
     8     5     6   ar
     9     6     7   ar
    10     7    12    1
    11    12    13    1
    12    13    14    1
    13    14    15    1
    14    15    16    1
    15     4     8   ar
    16     8     9    2
    17     8    10   ar
    18    20    21    1
    19    21    22    2
    20    21    23   am
    21    23    24    1
    22    24    25    1
    23    25    26    1
    24    26    27    1
    25    26    28    1
    26    10     1   ar
    27    28    23    1
    28     7     3   ar
    29    16    12    1
    30    17    18    1
    31     6    11    1
@<TRIPOS>MOLECULE
*****
 28 31 0 0 0
SMALL
GASTEIGER

@<TRIPOS>ATOM
      1 C         142.0755  143.8375  162.3727 C.ar    1  UNL1        0.2212
      2 N         141.2952  143.0027  163.3444 N.ar    1  UNL1       -0.1948
      3 C         139.8395  143.2829  163.5738 C.ar    1  UNL1        0.1667
      4 C         139.1643  144.3978  162.8316 C.ar    1  UNL1        0.1117
      5 C         137.7278  144.4379  163.2617 C.ar    1  UNL1        0.0968
      6 N         137.5153  143.3477  164.2698 N.ar    1  UNL1       -0.2924
      7 N         138.8204  142.6338  164.4627 N.ar    1  UNL1       -0.2587
      8 C         139.9446  145.2326  161.8599 C.ar    1  UNL1        0.2860
      9 O         139.2694  146.3476  161.1176 O.2     1  UNL1       -0.2650
     10 N         141.4003  144.9524  161.6305 N.ar    1  UNL1       -0.1749
     11 H         136.6680  143.1375  164.7249 H       1  UNL1        0.1871
     12 C         139.0636  141.4745  165.3829 C.3     1  UNL1        0.1046
     13 C         140.0420  141.4411  166.5194 C.3     1  UNL1        0.0243
     14 C         139.9542  140.0909  167.1671 C.3     1  UNL1        0.0021
     15 C         138.9215  139.2899  166.4308 C.3     1  UNL1        0.0021
     16 C         138.3712  140.1450  165.3282 C.3     1  UNL1        0.0243
     17 N         143.5312  143.5573  162.1434 N.pl3   1  UNL1       -0.2968
     18 H         144.1852  144.2924  162.1764 H       1  UNL1        0.1500
     19 C         143.7053  141.5260  160.5330 C.3     1  UNL1        0.0312
     20 C         143.9903  142.1570  161.8636 C.3     1  UNL1        0.1490
     21 C         144.7346  141.3876  162.9145 C.2     1  UNL1        0.2436
     22 O         146.1884  141.6648  163.1583 O.2     1  UNL1       -0.2731
     23 N         144.0250  140.3410  163.7215 N.am    1  UNL1       -0.2753
     24 C         142.5812  139.9558  163.5911 C.3     1  UNL1        0.0964
     25 C         142.2986  138.8727  164.5895 C.3     1  UNL1        0.0585
     26 C         143.5676  138.5885  165.3370 C.3     1  UNL1        0.1824
     27 F         143.7394  137.5748  166.4292 F       1  UNL1       -0.2354
     28 C         144.6346  139.4960  164.8005 C.3     1  UNL1        0.1286
@<TRIPOS>BOND
     1    20    19    1
     2    20    17    1
     3    17     1    1
     4     1     2   ar
     5     2     3   ar
     6     3     4    1
     7     4     5   ar
     8     5     6   ar
     9     6     7   ar
    10     7    12    1
    11    12    13    1
    12    13    14    1
    13    14    15    1
    14    15    16    1
    15     4     8   ar
    16     8     9    2
    17     8    10   ar
    18    20    21    1
    19    21    22    2
    20    21    23   am
    21    23    24    1
    22    24    25    1
    23    25    26    1
    24    26    27    1
    25    26    28    1
    26    10     1   ar
    27    28    23    1
    28     7     3   ar
    29    16    12    1
    30    17    18    1
    31     6    11    1
@<TRIPOS>MOLECULE
*****
 28 31 0 0 0
SMALL
GASTEIGER

@<TRIPOS>ATOM
      1 C         143.9204  140.8148  163.2256 C.ar    1  UNL1        0.2212
      2 N         142.5872  140.2837  163.6620 N.ar    1  UNL1       -0.1948
      3 C         141.7692  139.4475  162.7230 C.ar    1  UNL1        0.1667
      4 C         142.2845  139.1425  161.3476 C.ar    1  UNL1        0.1117
      5 C         141.2625  138.2974  160.6466 C.ar    1  UNL1        0.0968
      6 N         140.1156  138.0802  161.5886 N.ar    1  UNL1       -0.2924
      7 N         140.4288  138.7909  162.8719 N.ar    1  UNL1       -0.2587
      8 C         143.6177  139.6736  160.9113 C.ar    1  UNL1        0.2860
      9 O         144.1330  139.3686  159.5360 O.2     1  UNL1       -0.2650
     10 N         144.4356  140.5098  161.8504 N.ar    1  UNL1       -0.1749
     11 H         139.3005  137.5620  161.3981 H       1  UNL1        0.1871
     12 C         139.5549  138.8371  164.0902 C.3     1  UNL1        0.1046
     13 C         139.1643  137.6643  164.9400 C.3     1  UNL1        0.0243
     14 C         138.2862  138.1666  166.0476 C.3     1  UNL1        0.0021
     15 C         138.1340  139.6496  165.8823 C.3     1  UNL1        0.0021
     16 C         138.9181  140.0640  164.6725 C.3     1  UNL1        0.0243
     17 N         144.7383  141.6510  164.1647 N.pl3   1  UNL1       -0.2968
     18 H         145.5369  141.2691  164.5957 H       1  UNL1        0.1500
     19 C         144.7849  143.7351  165.7153 C.3     1  UNL1        0.0312
     20 C         144.3395  143.0692  164.4472 C.3     1  UNL1        0.1490
     21 C         143.4954  143.8215  163.4615 C.2     1  UNL1        0.2436
     22 O         144.1223  144.4096  162.2322 O.2     1  UNL1       -0.2731
     23 N         142.0245  143.9857  163.7051 N.am    1  UNL1       -0.2753
     24 C         141.2613  143.4561  164.8828 C.3     1  UNL1        0.0964
     25 C         139.8236  143.8515  164.7193 C.3     1  UNL1        0.0585
     26 C         139.6982  144.6253  163.4405 C.3     1  UNL1        0.1824
     27 F         138.4345  145.2131  162.8860 F       1  UNL1       -0.2354
     28 C         141.0584  144.7083  162.8137 C.3     1  UNL1        0.1286
@<TRIPOS>BOND
     1    20    19    1
     2    20    17    1
     3    17     1    1
     4     1     2   ar
     5     2     3   ar
     6     3     4    1
     7     4     5   ar
     8     5     6   ar
     9     6     7   ar
    10     7    12    1
    11    12    13    1
    12    13    14    1
    13    14    15    1
    14    15    16    1
    15     4     8   ar
    16     8     9    2
    17     8    10   ar
    18    20    21    1
    19    21    22    2
    20    21    23   am
    21    23    24    1
    22    24    25    1
    23    25    26    1
    24    26    27    1
    25    26    28    1
    26    10     1   ar
    27    28    23    1
    28     7     3   ar
    29    16    12    1
    30    17    18    1
    31     6    11    1
@<TRIPOS>MOLECULE
*****
 28 31 0 0 0
SMALL
GASTEIGER

@<TRIPOS>ATOM
      1 C         141.6548  138.4679  164.5033 C.ar    1  UNL1        0.2212
      2 N         141.7792  139.5608  165.5231 N.ar    1  UNL1       -0.1948
      3 C         142.7959  140.6479  165.3372 C.ar    1  UNL1        0.1667
      4 C         143.6882  140.6420  164.1315 C.ar    1  UNL1        0.1117
      5 C         144.5906  141.8372  164.2168 C.ar    1  UNL1        0.0968
      6 N         144.2559  142.5817  165.4752 N.ar    1  UNL1       -0.2924
      7 N         143.1467  141.8467  166.1676 N.ar    1  UNL1       -0.2587
      8 C         143.5638  139.5490  163.1117 C.ar    1  UNL1        0.2860
      9 O         144.4562  139.5431  161.9059 O.2     1  UNL1       -0.2650
     10 N         142.5470  138.4620  163.2977 N.ar    1  UNL1       -0.1749
     11 H         144.6883  143.4078  165.7912 H       1  UNL1        0.1871
     12 C         142.5017  142.2413  167.4631 C.3     1  UNL1        0.1046
     13 C         141.0482  142.5514  167.6658 C.3     1  UNL1        0.0243
     14 C         140.8451  142.8968  169.1113 C.3     1  UNL1        0.0021
     15 C         142.1732  142.8002  169.8020 C.3     1  UNL1        0.0021
     16 C         143.1970  142.3951  168.7833 C.3     1  UNL1        0.0243
     17 N         140.6380  137.3808  164.6893 N.pl3   1  UNL1       -0.2968
     18 H         140.9305  136.4484  164.8091 H       1  UNL1        0.1500
     19 C         138.2986  137.2309  165.8094 C.3     1  UNL1        0.0312
     20 C         139.1756  137.7144  164.6927 C.3     1  UNL1        0.1490
     21 C         138.5900  138.5316  163.5793 C.2     1  UNL1        0.2436
     22 O         138.2387  137.8794  162.2750 O.2     1  UNL1       -0.2731
     23 N         138.3558  140.0008  163.7702 N.am    1  UNL1       -0.2753
     24 C         138.6558  140.7874  165.0117 C.3     1  UNL1        0.0964
     25 C         138.2659  142.2141  164.7620 C.3     1  UNL1        0.0585
     26 C         137.7250  142.3094  163.3662 C.3     1  UNL1        0.1824
     27 F         137.2176  143.5540  162.7003 F       1  UNL1       -0.2354
     28 C         137.7806  140.9414  162.7532 C.3     1  UNL1        0.1286
@<TRIPOS>BOND
     1    20    19    1
     2    20    17    1
     3    17     1    1
     4     1     2   ar
     5     2     3   ar
     6     3     4    1
     7     4     5   ar
     8     5     6   ar
     9     6     7   ar
    10     7    12    1
    11    12    13    1
    12    13    14    1
    13    14    15    1
    14    15    16    1
    15     4     8   ar
    16     8     9    2
    17     8    10   ar
    18    20    21    1
    19    21    22    2
    20    21    23   am
    21    23    24    1
    22    24    25    1
    23    25    26    1
    24    26    27    1
    25    26    28    1
    26    10     1   ar
    27    28    23    1
    28     7     3   ar
    29    16    12    1
    30    17    18    1
    31     6    11    1
@<TRIPOS>MOLECULE
*****
 28 31 0 0 0
SMALL
GASTEIGER

@<TRIPOS>ATOM
      1 C         142.5351  143.6890  163.5412 C.ar    1  UNL1        0.2212
      2 N         141.5506  142.7917  164.2308 N.ar    1  UNL1       -0.1948
      3 C         140.0806  143.0724  164.1288 C.ar    1  UNL1        0.1667
      4 C         139.5952  144.2503  163.3371 C.ar    1  UNL1        0.1117
      5 C         138.0974  144.2758  163.4151 C.ar    1  UNL1        0.0968
      6 N         137.6572  143.1136  164.2550 N.ar    1  UNL1       -0.2924
      7 N         138.8829  142.3698  164.6961 N.ar    1  UNL1       -0.2587
      8 C         140.5797  145.1476  162.6475 C.ar    1  UNL1        0.2860
      9 O         140.0943  146.3256  161.8557 O.2     1  UNL1       -0.2650
     10 N         142.0497  144.8669  162.7495 N.ar    1  UNL1       -0.1749
     11 H         136.7271  142.8799  164.4776 H       1  UNL1        0.1871
     12 C         138.9066  141.1395  165.5538 C.3     1  UNL1        0.1046
     13 C         138.1430  139.8734  165.3009 C.3     1  UNL1        0.0243
     14 C         138.4626  138.9107  166.4059 C.3     1  UNL1        0.0021
     15 C         139.4238  139.5818  167.3418 C.3     1  UNL1        0.0021
     16 C         139.6982  140.9592  166.8152 C.3     1  UNL1        0.0243
     17 N         144.0051  143.4083  163.6433 N.pl3   1  UNL1       -0.2968
     18 H         144.6286  144.1308  163.8851 H       1  UNL1        0.1500
     19 C         145.9718  141.7108  163.6159 C.3     1  UNL1        0.0312
     20 C         144.5250  142.0267  163.3769 C.3     1  UNL1        0.1490
     21 C         143.5982  140.9610  162.8716 C.2     1  UNL1        0.2436
     22 O         143.1933  140.9423  161.4274 O.2     1  UNL1       -0.2731
     23 N         143.0764  139.9139  163.8104 N.am    1  UNL1       -0.2753
     24 C         143.3917  139.8050  165.2728 C.3     1  UNL1        0.0964
     25 C         142.6578  138.6157  165.8178 C.3     1  UNL1        0.0585
     26 C         141.8890  137.9896  164.6923 C.3     1  UNL1        0.1824
     27 F         141.0149  136.7746  164.7902 F       1  UNL1       -0.2354
     28 C         142.1476  138.7920  163.4516 C.3     1  UNL1        0.1286
@<TRIPOS>BOND
     1    20    19    1
     2    20    17    1
     3    17     1    1
     4     1     2   ar
     5     2     3   ar
     6     3     4    1
     7     4     5   ar
     8     5     6   ar
     9     6     7   ar
    10     7    12    1
    11    12    13    1
    12    13    14    1
    13    14    15    1
    14    15    16    1
    15     4     8   ar
    16     8     9    2
    17     8    10   ar
    18    20    21    1
    19    21    22    2
    20    21    23   am
    21    23    24    1
    22    24    25    1
    23    25    26    1
    24    26    27    1
    25    26    28    1
    26    10     1   ar
    27    28    23    1
    28     7     3   ar
    29    16    12    1
    30    17    18    1
    31     6    11    1
@<TRIPOS>MOLECULE
*****
 28 31 0 0 0
SMALL
GASTEIGER

@<TRIPOS>ATOM
      1 C         138.0055  142.7107  162.0137 C.ar    1  UNL1        0.2212
      2 N         138.2368  141.8422  163.2145 N.ar    1  UNL1       -0.1948
      3 C         138.3386  140.3541  163.0555 C.ar    1  UNL1        0.1667
      4 C         138.2091  139.7346  161.6955 C.ar    1  UNL1        0.1117
      5 C         138.3520  138.2491  161.8473 C.ar    1  UNL1        0.0968
      6 N         138.5698  137.9506  163.3010 N.ar    1  UNL1       -0.2924
      7 N         138.5615  139.2515  164.0478 N.ar    1  UNL1       -0.2587
      8 C         137.9778  140.6031  160.4946 C.ar    1  UNL1        0.2860
      9 O         137.8484  139.9837  159.1346 O.2     1  UNL1       -0.2650
     10 N         137.8760  142.0912  160.6538 N.ar    1  UNL1       -0.1749
     11 H         138.6960  137.0576  163.6958 H       1  UNL1        0.1871
     12 C         138.7440  139.4202  165.5270 C.3     1  UNL1        0.1046
     13 C         137.8755  138.8261  166.5960 C.3     1  UNL1        0.0243
     14 C         138.4219  139.2514  167.9267 C.3     1  UNL1        0.0021
     15 C         139.6282  140.1083  167.6801 C.3     1  UNL1        0.0021
     16 C         139.8272  140.2126  166.1970 C.3     1  UNL1        0.0243
     17 N         137.9037  144.1988  162.1728 N.pl3   1  UNL1       -0.2968
     18 H         137.0334  144.6468  162.0674 H       1  UNL1        0.1500
     19 C         139.4813  146.1967  161.6539 C.3     1  UNL1        0.0312
     20 C         139.1280  145.0043  162.4925 C.3     1  UNL1        0.1490
     21 C         139.9991  144.6174  163.6508 C.2     1  UNL1        0.2436
     22 O         139.4554  144.6686  165.0479 O.2     1  UNL1       -0.2731
     23 N         141.4137  144.1795  163.4121 N.am    1  UNL1       -0.2753
     24 C         142.0923  144.0789  162.0782 C.3     1  UNL1        0.0964
     25 C         143.4961  143.6025  162.3070 C.3     1  UNL1        0.0585
     26 C         143.6851  143.4086  163.7824 C.3     1  UNL1        0.1824
     27 F         144.9406  142.9404  164.4564 F       1  UNL1       -0.2354
     28 C         142.3981  143.7653  164.4654 C.3     1  UNL1        0.1286
@<TRIPOS>BOND
     1    20    19    1
     2    20    17    1
     3    17     1    1
     4     1     2   ar
     5     2     3   ar
     6     3     4    1
     7     4     5   ar
     8     5     6   ar
     9     6     7   ar
    10     7    12    1
    11    12    13    1
    12    13    14    1
    13    14    15    1
    14    15    16    1
    15     4     8   ar
    16     8     9    2
    17     8    10   ar
    18    20    21    1
    19    21    22    2
    20    21    23   am
    21    23    24    1
    22    24    25    1
    23    25    26    1
    24    26    27    1
    25    26    28    1
    26    10     1   ar
    27    28    23    1
    28     7     3   ar
    29    16    12    1
    30    17    18    1
    31     6    11    1
@<TRIPOS>MOLECULE
*****
 28 31 0 0 0
SMALL
GASTEIGER

@<TRIPOS>ATOM
      1 C         141.3088  143.6604  163.5112 C.ar    1  UNL1        0.2212
      2 N         140.5553  142.4053  163.8381 N.ar    1  UNL1       -0.1948
      3 C         139.4730  141.9197  162.9202 C.ar    1  UNL1        0.1667
      4 C         139.1440  142.6892  161.6753 C.ar    1  UNL1        0.1117
      5 C         138.0344  141.9712  160.9661 C.ar    1  UNL1        0.0968
      6 N         137.6774  140.7579  161.7726 N.ar    1  UNL1       -0.2924
      7 N         138.5665  140.7261  162.9803 N.ar    1  UNL1       -0.2587
      8 C         139.8975  143.9444  161.3485 C.ar    1  UNL1        0.2860
      9 O         139.5687  144.7140  160.1036 O.2     1  UNL1       -0.2650
     10 N         140.9799  144.4299  162.2665 N.ar    1  UNL1       -0.1749
     11 H         136.9818  140.0983  161.5486 H       1  UNL1        0.1871
     12 C         138.5517  139.6836  164.0587 C.3     1  UNL1        0.1046
     13 C         138.9232  138.2396  163.8944 C.3     1  UNL1        0.0243
     14 C         138.7639  137.5657  165.2250 C.3     1  UNL1        0.0021
     15 C         138.2941  138.5931  166.2117 C.3     1  UNL1        0.0021
     16 C         138.1629  139.9020  165.4909 C.3     1  UNL1        0.0243
     17 N         142.3912  144.1460  164.4293 N.pl3   1  UNL1       -0.2968
     18 H         142.2139  144.8899  165.0493 H       1  UNL1        0.1500
     19 C         144.6768  143.6615  165.5657 C.3     1  UNL1        0.0312
     20 C         143.7438  143.4981  164.4026 C.3     1  UNL1        0.1490
     21 C         144.1635  142.6867  163.2128 C.2     1  UNL1        0.2436
     22 O         144.7693  143.3638  162.0192 O.2     1  UNL1       -0.2731
     23 N         143.9774  141.1983  163.2165 N.am    1  UNL1       -0.2753
     24 C         143.3890  140.3862  164.3319 C.3     1  UNL1        0.0964
     25 C         143.3950  138.9467  163.9102 C.3     1  UNL1        0.0585
     26 C         143.9870  138.8691  162.5343 C.3     1  UNL1        0.1824
     27 F         144.1845  137.6194  161.7285 F       1  UNL1       -0.2354
     28 C         144.3470  140.2608  162.1055 C.3     1  UNL1        0.1286
@<TRIPOS>BOND
     1    20    19    1
     2    20    17    1
     3    17     1    1
     4     1     2   ar
     5     2     3   ar
     6     3     4    1
     7     4     5   ar
     8     5     6   ar
     9     6     7   ar
    10     7    12    1
    11    12    13    1
    12    13    14    1
    13    14    15    1
    14    15    16    1
    15     4     8   ar
    16     8     9    2
    17     8    10   ar
    18    20    21    1
    19    21    22    2
    20    21    23   am
    21    23    24    1
    22    24    25    1
    23    25    26    1
    24    26    27    1
    25    26    28    1
    26    10     1   ar
    27    28    23    1
    28     7     3   ar
    29    16    12    1
    30    17    18    1
    31     6    11    1
@<TRIPOS>MOLECULE
*****
 28 31 0 0 0
SMALL
GASTEIGER

@<TRIPOS>ATOM
      1 C         141.8911  143.0438  164.6147 C.ar    1  UNL1        0.2212
      2 N         141.5349  142.2374  165.8283 N.ar    1  UNL1       -0.1948
      3 C         142.2055  140.9187  166.0759 C.ar    1  UNL1        0.1667
      4 C         143.2324  140.4064  165.1099 C.ar    1  UNL1        0.1117
      5 C         143.7224  139.0812  165.6137 C.ar    1  UNL1        0.0968
      6 N         142.9983  138.7745  166.8911 N.ar    1  UNL1       -0.2924
      7 N         142.0608  139.9101  167.1767 N.ar    1  UNL1       -0.2587
      8 C         143.5887  141.2128  163.8963 C.ar    1  UNL1        0.2860
      9 O         144.6156  140.7006  162.9303 O.2     1  UNL1       -0.2650
     10 N         142.9180  142.5315  163.6488 N.ar    1  UNL1       -0.1749
     11 H         143.1174  137.9693  167.4448 H       1  UNL1        0.1871
     12 C         141.1403  140.0181  168.3561 C.3     1  UNL1        0.1046
     13 C         139.6775  140.3463  168.3057 C.3     1  UNL1        0.0243
     14 C         139.1542  140.3479  169.7115 C.3     1  UNL1        0.0021
     15 C         140.2935  140.0208  170.6307 C.3     1  UNL1        0.0021
     16 C         141.5210  139.8170  169.7930 C.3     1  UNL1        0.0243
     17 N         141.2204  144.3625  164.3671 N.pl3   1  UNL1       -0.2968
     18 H         141.7521  145.1911  164.3575 H       1  UNL1        0.1500
     19 C         138.8259  144.8884  165.2270 C.3     1  UNL1        0.0312
     20 C         139.7397  144.4187  164.1341 C.3     1  UNL1        0.1490
     21 C         139.1728  144.0052  162.8084 C.2     1  UNL1        0.2436
     22 O         139.1333  144.9832  161.6717 O.2     1  UNL1       -0.2731
     23 N         138.6452  142.6139  162.6192 N.am    1  UNL1       -0.2753
     24 C         138.6184  141.5323  163.6582 C.3     1  UNL1        0.0964
     25 C         138.0086  140.3098  163.0390 C.3     1  UNL1        0.0585
     26 C         137.6584  140.6357  161.6174 C.3     1  UNL1        0.1824
     27 F         137.0259  139.7017  160.6287 F       1  UNL1       -0.2354
     28 C         138.0520  142.0598  161.3579 C.3     1  UNL1        0.1286
@<TRIPOS>BOND
     1    20    19    1
     2    20    17    1
     3    17     1    1
     4     1     2   ar
     5     2     3   ar
     6     3     4    1
     7     4     5   ar
     8     5     6   ar
     9     6     7   ar
    10     7    12    1
    11    12    13    1
    12    13    14    1
    13    14    15    1
    14    15    16    1
    15     4     8   ar
    16     8     9    2
    17     8    10   ar
    18    20    21    1
    19    21    22    2
    20    21    23   am
    21    23    24    1
    22    24    25    1
    23    25    26    1
    24    26    27    1
    25    26    28    1
    26    10     1   ar
    27    28    23    1
    28     7     3   ar
    29    16    12    1
    30    17    18    1
    31     6    11    1
