@<TRIPOS>MOLECULE
*****
 37 40 0 0 0
SMALL
GASTEIGER

@<TRIPOS>ATOM
      1 N         141.3504  138.3843  158.4020 N.3     1  UNL1       -0.2689
      2 C         142.4861  138.4612  159.3788 C.3     1  UNL1        0.0741
      3 C         142.2056  138.5371  160.8505 C.3     1  UNL1        0.0369
      4 C         140.7896  138.5361  161.3452 C.3     1  UNL1        0.0747
      5 C         139.6539  138.4592  160.3683 C.3     1  UNL1        0.0369
      6 C         139.9343  138.3833  158.8967 C.3     1  UNL1        0.0741
      7 N         140.5092  138.6119  162.8168 N.am    1  UNL1       -0.2999
      8 C         140.1667  139.9288  163.4481 C.2     1  UNL1        0.2806
      9 O         140.1044  141.1697  162.6078 O.2     1  UNL1       -0.2668
     10 H         140.5501  137.7974  163.3683 H       1  UNL1        0.1498
     11 C         139.8863  140.0046  164.9198 C.ar    1  UNL1        0.2014
     12 C         138.8559  139.1043  165.5343 C.ar    1  UNL1        0.0843
     13 C         138.5755  139.1800  167.0059 C.ar    1  UNL1        0.2018
     14 O         137.5451  138.2797  167.6204 O.2     1  UNL1       -0.2864
     15 C         139.3255  140.1562  167.8630 C.ar    1  UNL1        0.0737
     16 C         139.0452  140.2320  169.3346 C.ar    1  UNL1        0.0085
     17 C         139.7952  141.2081  170.1916 C.ar    1  UNL1        0.0299
     18 C         140.8256  142.1085  169.5771 C.ar    1  UNL1        0.1432
     19 F         141.5756  143.0847  170.4342 F       1  UNL1       -0.2041
     20 C         141.1060  142.0327  168.1055 C.ar    1  UNL1        0.0672
     21 C         140.3560  141.0566  167.2485 C.ar    1  UNL1        0.1508
     22 O         140.6363  140.9807  165.7768 O.2     1  UNL1       -0.4486
     23 C         141.6307  138.3084  156.9304 C.3     1  UNL1        0.0992
     24 C         142.6548  134.3573  155.0357 C.ar    1  UNL1        0.1385
     25 C         141.2413  134.8585  155.0078 C.ar    1  UNL1        0.0366
     26 C         140.9000  136.1756  155.6394 C.ar    1  UNL1        0.0002
     27 C         141.9721  136.9914  156.2988 C.ar    1  UNL1       -0.0059
     28 C         143.3856  136.4902  156.3268 C.ar    1  UNL1        0.0002
     29 C         143.7269  135.1731  155.6952 C.ar    1  UNL1        0.0366
     30 O         142.9962  133.0402  154.4042 O.3     1  UNL1       -0.4754
     31 C         143.1357  131.8137  155.2562 C.3     1  UNL1        0.2078
     32 C         144.4930  131.3698  155.7153 C.3     1  UNL1        0.0745
     33 C         144.6815  130.8565  157.1121 C.3     1  UNL1        0.0966
     34 C         144.8604  132.2620  157.6045 C.3     1  UNL1        0.0298
     35 C         144.5026  129.4510  156.6197 C.3     1  UNL1        0.0298
     36 C         144.3298  128.9975  158.8926 C.3     1  UNL1        0.1739
     37 O         144.8700  130.3432  158.5089 O.3     1  UNL1       -0.3557
@<TRIPOS>BOND
     1    36    37    1
     2    37    33    1
     3    33    34    1
     4    33    35    1
     5    33    32    1
     6    32    31    1
     7    31    30    1
     8    30    24    1
     9    24    25   ar
    10    25    26   ar
    11    26    27   ar
    12    27    23    1
    13    23     1    1
    14     1     2    1
    15     2     3    1
    16     3     4    1
    17     4     7    1
    18     7     8   am
    19     8     9    2
    20     8    11    1
    21    11    12   ar
    22    12    13   ar
    23    13    14    2
    24    13    15   ar
    25    15    16   ar
    26    16    17   ar
    27    17    18   ar
    28    18    19    1
    29    18    20   ar
    30    20    21   ar
    31    21    22   ar
    32     4     5    1
    33     5     6    1
    34    27    28   ar
    35    28    29   ar
    36    29    24   ar
    37     6     1    1
    38    22    11   ar
    39    21    15   ar
    40     7    10    1
@<TRIPOS>MOLECULE
*****
 37 40 0 0 0
SMALL
GASTEIGER

@<TRIPOS>ATOM
      1 N         141.4837  137.9874  157.9938 N.3     1  UNL1       -0.2689
      2 C         140.0484  138.3108  158.2856 C.3     1  UNL1        0.0741
      3 C         139.6380  138.7196  159.6693 C.3     1  UNL1        0.0369
      4 C         140.6630  138.8049  160.7611 C.3     1  UNL1        0.0747
      5 C         142.0983  138.4815  160.4693 C.3     1  UNL1        0.0369
      6 C         142.5087  138.0727  159.0857 C.3     1  UNL1        0.0741
      7 N         140.2526  139.2137  162.1447 N.am    1  UNL1       -0.2999
      8 C         140.3810  138.2445  163.2822 C.2     1  UNL1        0.2806
      9 O         140.9199  136.8664  163.0362 O.2     1  UNL1       -0.2668
     10 H         139.8989  140.1182  162.3062 H       1  UNL1        0.1498
     11 C         139.9706  138.6533  164.6659 C.ar    1  UNL1        0.2014
     12 C         138.6657  138.1777  165.2325 C.ar    1  UNL1        0.0843
     13 C         138.2553  138.5865  166.6161 C.ar    1  UNL1        0.2018
     14 O         136.9504  138.1108  167.1826 O.2     1  UNL1       -0.2864
     15 C         139.1498  139.4710  167.4332 C.ar    1  UNL1        0.0737
     16 C         138.7393  139.8798  168.8168 C.ar    1  UNL1        0.0085
     17 C         139.6338  140.7643  169.6338 C.ar    1  UNL1        0.0299
     18 C         140.9387  141.2399  169.0673 C.ar    1  UNL1        0.1432
     19 F         141.8332  142.1244  169.8844 F       1  UNL1       -0.2041
     20 C         141.3491  140.8311  167.6837 C.ar    1  UNL1        0.0672
     21 C         140.4547  139.9466  166.8666 C.ar    1  UNL1        0.1508
     22 O         140.8651  139.5378  165.4830 O.2     1  UNL1       -0.4486
     23 C         141.8941  137.5786  156.6101 C.3     1  UNL1        0.0992
     24 C         142.7552  133.2558  155.7034 C.ar    1  UNL1        0.1385
     25 C         143.6639  134.0264  156.6147 C.ar    1  UNL1        0.0366
     26 C         143.3768  135.4673  156.9169 C.ar    1  UNL1        0.0002
     27 C         142.1811  136.1376  156.3079 C.ar    1  UNL1       -0.0059
     28 C         141.2725  135.3670  155.3967 C.ar    1  UNL1        0.0002
     29 C         141.5595  133.9261  155.0944 C.ar    1  UNL1        0.0366
     30 O         143.0422  131.8149  155.4012 O.3     1  UNL1       -0.4754
     31 C         144.3821  131.2305  155.7376 C.3     1  UNL1        0.2078
     32 C         144.4811  129.8189  156.2353 C.3     1  UNL1        0.0745
     33 C         144.3185  129.5260  157.6974 C.3     1  UNL1        0.0966
     34 C         144.8983  130.8686  158.0309 C.3     1  UNL1        0.0298
     35 C         143.7387  128.1834  157.3640 C.3     1  UNL1        0.0298
     36 C         143.0237  128.3690  159.6299 C.3     1  UNL1        0.1739
     37 O         144.1559  129.2331  159.1595 O.3     1  UNL1       -0.3557
@<TRIPOS>BOND
     1    36    37    1
     2    37    33    1
     3    33    34    1
     4    33    35    1
     5    33    32    1
     6    32    31    1
     7    31    30    1
     8    30    24    1
     9    24    25   ar
    10    25    26   ar
    11    26    27   ar
    12    27    23    1
    13    23     1    1
    14     1     2    1
    15     2     3    1
    16     3     4    1
    17     4     7    1
    18     7     8   am
    19     8     9    2
    20     8    11    1
    21    11    12   ar
    22    12    13   ar
    23    13    14    2
    24    13    15   ar
    25    15    16   ar
    26    16    17   ar
    27    17    18   ar
    28    18    19    1
    29    18    20   ar
    30    20    21   ar
    31    21    22   ar
    32     4     5    1
    33     5     6    1
    34    27    28   ar
    35    28    29   ar
    36    29    24   ar
    37     6     1    1
    38    22    11   ar
    39    21    15   ar
    40     7    10    1
@<TRIPOS>MOLECULE
*****
 37 40 0 0 0
SMALL
GASTEIGER

@<TRIPOS>ATOM
      1 N         143.9315  142.0537  161.2794 N.3     1  UNL1       -0.2689
      2 C         144.1906  140.6291  161.6712 C.3     1  UNL1        0.0741
      3 C         144.0948  139.5397  160.6445 C.3     1  UNL1        0.0369
      4 C         143.7400  139.8748  159.2261 C.3     1  UNL1        0.0747
      5 C         143.4809  141.2994  158.8344 C.3     1  UNL1        0.0369
      6 C         143.5767  142.3888  159.8610 C.3     1  UNL1        0.0741
      7 N         143.6442  138.7854  158.1995 N.am    1  UNL1       -0.2999
      8 C         142.4652  137.8581  158.1977 C.2     1  UNL1        0.2806
      9 O         141.3819  138.0202  159.2225 O.2     1  UNL1       -0.2668
     10 H         144.3552  138.6790  157.5269 H       1  UNL1        0.1498
     11 C         142.3695  136.7686  157.1711 C.ar    1  UNL1        0.2014
     12 C         141.4011  136.8941  156.0324 C.ar    1  UNL1        0.0843
     13 C         141.3053  135.8047  155.0058 C.ar    1  UNL1        0.2018
     14 O         140.3369  135.9302  153.8672 O.2     1  UNL1       -0.2864
     15 C         142.1780  134.5898  155.1177 C.ar    1  UNL1        0.0737
     16 C         142.0823  133.5004  154.0911 C.ar    1  UNL1        0.0085
     17 C         142.9549  132.2856  154.2031 C.ar    1  UNL1        0.0299
     18 C         143.9234  132.1601  155.3417 C.ar    1  UNL1        0.1432
     19 F         144.7961  130.9452  155.4536 F       1  UNL1       -0.2041
     20 C         144.0191  133.2495  156.3683 C.ar    1  UNL1        0.0672
     21 C         143.1464  134.4643  156.2564 C.ar    1  UNL1        0.1508
     22 O         143.2422  135.5538  157.2830 O.2     1  UNL1       -0.4486
     23 C         144.0273  143.1431  162.3060 C.3     1  UNL1        0.0992
     24 C         141.8726  142.7283  166.2348 C.ar    1  UNL1        0.1385
     25 C         141.1120  143.1069  164.9986 C.ar    1  UNL1        0.0366
     26 C         141.8303  143.2451  163.6890 C.ar    1  UNL1        0.0002
     27 C         143.3090  143.0049  163.6156 C.ar    1  UNL1       -0.0059
     28 C         144.0696  142.6263  164.8518 C.ar    1  UNL1        0.0002
     29 C         143.3513  142.4880  166.1614 C.ar    1  UNL1        0.0366
     30 O         141.1543  142.5900  167.5443 O.3     1  UNL1       -0.4754
     31 C         140.2495  141.4179  167.7834 C.3     1  UNL1        0.2078
     32 C         140.7484  140.2294  168.5506 C.3     1  UNL1        0.0745
     33 C         142.0032  139.5304  168.1182 C.3     1  UNL1        0.0966
     34 C         142.5942  139.7491  169.4793 C.3     1  UNL1        0.0298
     35 C         141.4121  139.3116  166.7570 C.3     1  UNL1        0.0298
     36 C         143.4307  138.4181  166.2542 C.3     1  UNL1        0.1739
     37 O         143.2578  138.8314  167.6857 O.3     1  UNL1       -0.3557
@<TRIPOS>BOND
     1    36    37    1
     2    37    33    1
     3    33    34    1
     4    33    35    1
     5    33    32    1
     6    32    31    1
     7    31    30    1
     8    30    24    1
     9    24    25   ar
    10    25    26   ar
    11    26    27   ar
    12    27    23    1
    13    23     1    1
    14     1     2    1
    15     2     3    1
    16     3     4    1
    17     4     7    1
    18     7     8   am
    19     8     9    2
    20     8    11    1
    21    11    12   ar
    22    12    13   ar
    23    13    14    2
    24    13    15   ar
    25    15    16   ar
    26    16    17   ar
    27    17    18   ar
    28    18    19    1
    29    18    20   ar
    30    20    21   ar
    31    21    22   ar
    32     4     5    1
    33     5     6    1
    34    27    28   ar
    35    28    29   ar
    36    29    24   ar
    37     6     1    1
    38    22    11   ar
    39    21    15   ar
    40     7    10    1
@<TRIPOS>MOLECULE
*****
 37 40 0 0 0
SMALL
GASTEIGER

@<TRIPOS>ATOM
      1 N         142.4725  138.7508  158.7097 N.3     1  UNL1       -0.2689
      2 C         141.5372  139.8800  159.0263 C.3     1  UNL1        0.0741
      3 C         140.9599  140.0118  160.4045 C.3     1  UNL1        0.0369
      4 C         141.3178  139.0144  161.4661 C.3     1  UNL1        0.0747
      5 C         142.2531  137.8852  161.1495 C.3     1  UNL1        0.0369
      6 C         142.8304  137.7534  159.7714 C.3     1  UNL1        0.0741
      7 N         140.7405  139.1462  162.8442 N.am    1  UNL1       -0.2999
      8 C         141.5537  139.7656  163.9420 C.2     1  UNL1        0.2806
      9 O         142.9443  140.2532  163.6616 O.2     1  UNL1       -0.2668
     10 H         139.8279  138.8261  163.0283 H       1  UNL1        0.1498
     11 C         140.9764  139.8974  165.3201 C.ar    1  UNL1        0.2014
     12 C         139.6736  139.2331  165.6542 C.ar    1  UNL1        0.0843
     13 C         139.0962  139.3649  167.0323 C.ar    1  UNL1        0.2018
     14 O         137.7934  138.7007  167.3663 O.2     1  UNL1       -0.2864
     15 C         139.8216  140.1609  168.0764 C.ar    1  UNL1        0.0737
     16 C         139.2442  140.2926  169.4545 C.ar    1  UNL1        0.0085
     17 C         139.9696  141.0886  170.4986 C.ar    1  UNL1        0.0299
     18 C         141.2724  141.7528  170.1646 C.ar    1  UNL1        0.1432
     19 F         141.9978  142.5488  171.2088 F       1  UNL1       -0.2041
     20 C         141.8498  141.6211  168.7865 C.ar    1  UNL1        0.0672
     21 C         141.1244  140.8251  167.7424 C.ar    1  UNL1        0.1508
     22 O         141.7018  140.6933  166.3642 O.2     1  UNL1       -0.4486
     23 C         143.0498  138.6190  157.3316 C.3     1  UNL1        0.0992
     24 C         141.8689  135.1501  154.7197 C.ar    1  UNL1        0.1385
     25 C         140.8336  135.8523  155.5473 C.ar    1  UNL1        0.0366
     26 C         141.2272  137.0086  156.4179 C.ar    1  UNL1        0.0002
     27 C         142.6561  137.4627  156.4610 C.ar    1  UNL1       -0.0059
     28 C         143.6915  136.7604  155.6334 C.ar    1  UNL1        0.0002
     29 C         143.2978  135.6041  154.7628 C.ar    1  UNL1        0.0366
     30 O         141.4753  133.9938  153.8491 O.3     1  UNL1       -0.4754
     31 C         142.0823  132.6414  154.0785 C.3     1  UNL1        0.2078
     32 C         142.2711  132.1314  155.4764 C.3     1  UNL1        0.0745
     33 C         143.6541  131.9535  156.0295 C.3     1  UNL1        0.0966
     34 C         144.0155  131.0988  154.8510 C.3     1  UNL1        0.0298
     35 C         143.2927  132.8082  157.2080 C.3     1  UNL1        0.0298
     36 C         145.3581  132.2541  157.9674 C.3     1  UNL1        0.1739
     37 O         145.0370  131.7756  156.5826 O.3     1  UNL1       -0.3557
@<TRIPOS>BOND
     1    36    37    1
     2    37    33    1
     3    33    34    1
     4    33    35    1
     5    33    32    1
     6    32    31    1
     7    31    30    1
     8    30    24    1
     9    24    25   ar
    10    25    26   ar
    11    26    27   ar
    12    27    23    1
    13    23     1    1
    14     1     2    1
    15     2     3    1
    16     3     4    1
    17     4     7    1
    18     7     8   am
    19     8     9    2
    20     8    11    1
    21    11    12   ar
    22    12    13   ar
    23    13    14    2
    24    13    15   ar
    25    15    16   ar
    26    16    17   ar
    27    17    18   ar
    28    18    19    1
    29    18    20   ar
    30    20    21   ar
    31    21    22   ar
    32     4     5    1
    33     5     6    1
    34    27    28   ar
    35    28    29   ar
    36    29    24   ar
    37     6     1    1
    38    22    11   ar
    39    21    15   ar
    40     7    10    1
@<TRIPOS>MOLECULE
*****
 37 40 0 0 0
SMALL
GASTEIGER

@<TRIPOS>ATOM
      1 N         142.5786  140.9446  161.5960 N.3     1  UNL1       -0.2689
      2 C         143.6552  139.9009  161.6390 C.3     1  UNL1        0.0741
      3 C         143.5747  138.7029  160.7399 C.3     1  UNL1        0.0369
      4 C         142.4176  138.5485  159.7979 C.3     1  UNL1        0.0747
      5 C         141.3410  139.5921  159.7550 C.3     1  UNL1        0.0369
      6 C         141.4215  140.7901  160.6540 C.3     1  UNL1        0.0741
      7 N         142.3371  137.3505  158.8989 N.am    1  UNL1       -0.2999
      8 C         142.8891  137.4197  157.5059 C.2     1  UNL1        0.2806
      9 O         143.5216  138.6869  157.0119 O.2     1  UNL1       -0.2668
     10 H         141.9220  136.5188  159.2232 H       1  UNL1        0.1498
     11 C         142.8086  136.2216  156.6069 C.ar    1  UNL1        0.2014
     12 C         141.8714  136.2245  155.4357 C.ar    1  UNL1        0.0843
     13 C         141.7909  135.0265  154.5367 C.ar    1  UNL1        0.2018
     14 O         140.8537  135.0293  153.3655 O.2     1  UNL1       -0.2864
     15 C         142.6476  133.8255  154.8089 C.ar    1  UNL1        0.0737
     16 C         142.5670  132.6275  153.9098 C.ar    1  UNL1        0.0085
     17 C         143.4237  131.4267  154.1820 C.ar    1  UNL1        0.0299
     18 C         144.3608  131.4239  155.3532 C.ar    1  UNL1        0.1432
     19 F         145.2175  130.2230  155.6254 F       1  UNL1       -0.2041
     20 C         144.4414  132.6219  156.2522 C.ar    1  UNL1        0.0672
     21 C         143.5847  133.8227  155.9800 C.ar    1  UNL1        0.1508
     22 O         143.6652  135.0208  156.8791 O.2     1  UNL1       -0.4486
     23 C         142.6591  142.1426  162.4951 C.3     1  UNL1        0.0992
     24 C         142.8843  141.5969  166.9562 C.ar    1  UNL1        0.1385
     25 C         142.0145  140.6937  166.1331 C.ar    1  UNL1        0.0366
     26 C         141.9394  140.8756  164.6460 C.ar    1  UNL1        0.0002
     27 C         142.7342  141.9607  163.9821 C.ar    1  UNL1       -0.0059
     28 C         143.6040  142.8639  164.8052 C.ar    1  UNL1        0.0002
     29 C         143.6791  142.6820  166.2922 C.ar    1  UNL1        0.0366
     30 O         142.9594  141.4150  168.4432 O.3     1  UNL1       -0.4754
     31 C         143.1320  142.6072  169.3369 C.3     1  UNL1        0.2078
     32 C         142.1916  142.8268  170.4846 C.3     1  UNL1        0.0745
     33 C         140.7969  142.2775  170.4270 C.3     1  UNL1        0.0966
     34 C         141.2109  141.1340  171.3050 C.3     1  UNL1        0.0298
     35 C         140.3829  143.4210  169.5490 C.3     1  UNL1        0.0298
     36 C         139.1390  140.4203  169.6840 C.3     1  UNL1        0.1739
     37 O         139.4022  141.7283  170.3694 O.3     1  UNL1       -0.3557
@<TRIPOS>BOND
     1    36    37    1
     2    37    33    1
     3    33    34    1
     4    33    35    1
     5    33    32    1
     6    32    31    1
     7    31    30    1
     8    30    24    1
     9    24    25   ar
    10    25    26   ar
    11    26    27   ar
    12    27    23    1
    13    23     1    1
    14     1     2    1
    15     2     3    1
    16     3     4    1
    17     4     7    1
    18     7     8   am
    19     8     9    2
    20     8    11    1
    21    11    12   ar
    22    12    13   ar
    23    13    14    2
    24    13    15   ar
    25    15    16   ar
    26    16    17   ar
    27    17    18   ar
    28    18    19    1
    29    18    20   ar
    30    20    21   ar
    31    21    22   ar
    32     4     5    1
    33     5     6    1
    34    27    28   ar
    35    28    29   ar
    36    29    24   ar
    37     6     1    1
    38    22    11   ar
    39    21    15   ar
    40     7    10    1
@<TRIPOS>MOLECULE
*****
 37 40 0 0 0
SMALL
GASTEIGER

@<TRIPOS>ATOM
      1 N         141.4126  140.9441  158.0499 N.3     1  UNL1       -0.2689
      2 C         140.5655  142.1717  157.8903 C.3     1  UNL1        0.0741
      3 C         139.0730  142.0473  157.8063 C.3     1  UNL1        0.0369
      4 C         138.4277  140.6954  157.8819 C.3     1  UNL1        0.0747
      5 C         139.2748  139.4678  158.0415 C.3     1  UNL1        0.0369
      6 C         140.7672  139.5921  158.1255 C.3     1  UNL1        0.0741
      7 N         136.9352  140.5710  157.7980 N.am    1  UNL1       -0.2999
      8 C         136.2494  140.6544  156.4666 C.2     1  UNL1        0.2806
      9 O         137.0560  140.8622  155.2191 O.2     1  UNL1       -0.2668
     10 H         136.4058  140.4347  158.6167 H       1  UNL1        0.1498
     11 C         134.7568  140.5301  156.3827 C.ar    1  UNL1        0.2014
     12 C         133.9956  141.3132  155.3544 C.ar    1  UNL1        0.0843
     13 C         132.5032  141.1889  155.2705 C.ar    1  UNL1        0.2018
     14 O         131.7420  141.9720  154.2422 O.2     1  UNL1       -0.2864
     15 C         131.7719  140.2814  156.2148 C.ar    1  UNL1        0.0737
     16 C         130.2794  140.1571  156.1309 C.ar    1  UNL1        0.0085
     17 C         129.5481  139.2497  157.0752 C.ar    1  UNL1        0.0299
     18 C         130.3093  138.4665  158.1034 C.ar    1  UNL1        0.1432
     19 F         129.5780  137.5591  159.0478 F       1  UNL1       -0.2041
     20 C         131.8018  138.5909  158.1874 C.ar    1  UNL1        0.0672
     21 C         132.5330  139.4983  157.2431 C.ar    1  UNL1        0.1508
     22 O         134.0256  139.6227  157.3270 O.2     1  UNL1       -0.4486
     23 C         142.9051  141.0684  158.1338 C.3     1  UNL1        0.0992
     24 C         144.9007  141.5546  162.1377 C.ar    1  UNL1        0.1385
     25 C         144.3487  140.2202  161.7319 C.ar    1  UNL1        0.0366
     26 C         143.6835  140.0582  160.3973 C.ar    1  UNL1        0.0002
     27 C         143.5703  141.2305  159.4684 C.ar    1  UNL1       -0.0059
     28 C         144.1223  142.5649  159.8742 C.ar    1  UNL1        0.0002
     29 C         144.7875  142.7269  161.2088 C.ar    1  UNL1        0.0366
     30 O         145.5659  141.7167  163.4723 O.3     1  UNL1       -0.4754
     31 C         144.7520  142.0900  164.6756 C.3     1  UNL1        0.2078
     32 C         144.3020  143.5082  164.8661 C.3     1  UNL1        0.0745
     33 C         142.9732  143.9519  164.3297 C.3     1  UNL1        0.0966
     34 C         143.6185  145.1703  163.7389 C.3     1  UNL1        0.0298
     35 C         142.3279  142.7336  164.9206 C.3     1  UNL1        0.0298
     36 C         141.5147  144.8048  162.3562 C.3     1  UNL1        0.1739
     37 O         141.6445  144.3956  163.7934 O.3     1  UNL1       -0.3557
@<TRIPOS>BOND
     1    36    37    1
     2    37    33    1
     3    33    34    1
     4    33    35    1
     5    33    32    1
     6    32    31    1
     7    31    30    1
     8    30    24    1
     9    24    25   ar
    10    25    26   ar
    11    26    27   ar
    12    27    23    1
    13    23     1    1
    14     1     2    1
    15     2     3    1
    16     3     4    1
    17     4     7    1
    18     7     8   am
    19     8     9    2
    20     8    11    1
    21    11    12   ar
    22    12    13   ar
    23    13    14    2
    24    13    15   ar
    25    15    16   ar
    26    16    17   ar
    27    17    18   ar
    28    18    19    1
    29    18    20   ar
    30    20    21   ar
    31    21    22   ar
    32     4     5    1
    33     5     6    1
    34    27    28   ar
    35    28    29   ar
    36    29    24   ar
    37     6     1    1
    38    22    11   ar
    39    21    15   ar
    40     7    10    1
@<TRIPOS>MOLECULE
*****
 37 40 0 0 0
SMALL
GASTEIGER

@<TRIPOS>ATOM
      1 N         139.3969  139.3118  159.4551 N.3     1  UNL1       -0.2689
      2 C         139.8179  140.6839  159.8912 C.3     1  UNL1        0.0741
      3 C         139.8589  141.0274  161.3508 C.3     1  UNL1        0.0369
      4 C         139.4789  139.9988  162.3743 C.3     1  UNL1        0.0747
      5 C         139.0579  138.6267  161.9382 C.3     1  UNL1        0.0369
      6 C         139.0169  138.2832  160.4787 C.3     1  UNL1        0.0741
      7 N         139.5200  140.3423  163.8338 N.am    1  UNL1       -0.2999
      8 C         140.7011  139.9396  164.6661 C.2     1  UNL1        0.2806
      9 O         141.8412  139.1935  164.0390 O.2     1  UNL1       -0.2668
     10 H         138.7717  140.8320  164.2455 H       1  UNL1        0.1498
     11 C         140.7421  140.2831  166.1258 C.ar    1  UNL1        0.2014
     12 C         139.6465  139.8154  167.0374 C.ar    1  UNL1        0.0843
     13 C         139.6875  140.1589  168.4969 C.ar    1  UNL1        0.2018
     14 O         138.5919  139.6912  169.4085 O.2     1  UNL1       -0.2864
     15 C         140.8240  140.9701  169.0449 C.ar    1  UNL1        0.0737
     16 C         140.8650  141.3136  170.5044 C.ar    1  UNL1        0.0085
     17 C         142.0014  142.1248  171.0524 C.ar    1  UNL1        0.0299
     18 C         143.0970  142.5925  170.1408 C.ar    1  UNL1        0.1432
     19 F         144.2336  143.4037  170.6888 F       1  UNL1       -0.2041
     20 C         143.0561  142.2490  168.6813 C.ar    1  UNL1        0.0672
     21 C         141.9196  141.4378  168.1333 C.ar    1  UNL1        0.1508
     22 O         141.8786  141.0943  166.6737 O.2     1  UNL1       -0.4486
     23 C         139.3559  138.9684  157.9956 C.3     1  UNL1        0.0992
     24 C         142.6395  136.4881  156.1746 C.ar    1  UNL1        0.1385
     25 C         141.3033  136.5761  155.4987 C.ar    1  UNL1        0.0366
     26 C         140.2088  137.4029  156.1057 C.ar    1  UNL1        0.0002
     27 C         140.4504  138.1416  157.3886 C.ar    1  UNL1       -0.0059
     28 C         141.7866  138.0535  158.0645 C.ar    1  UNL1        0.0002
     29 C         142.8811  137.2268  157.4575 C.ar    1  UNL1        0.0366
     30 O         143.7340  135.6613  155.5676 O.3     1  UNL1       -0.4754
     31 C         143.9188  134.2343  155.9911 C.3     1  UNL1        0.2078
     32 C         142.8088  133.5109  156.6945 C.3     1  UNL1        0.0745
     33 C         142.2952  132.2120  156.1476 C.3     1  UNL1        0.0966
     34 C         141.3316  132.9603  155.2751 C.3     1  UNL1        0.0298
     35 C         143.2589  131.4637  157.0201 C.3     1  UNL1        0.0298
     36 C         142.7150  129.9758  154.8935 C.3     1  UNL1        0.1739
     37 O         141.7817  130.9131  155.6007 O.3     1  UNL1       -0.3557
@<TRIPOS>BOND
     1    36    37    1
     2    37    33    1
     3    33    34    1
     4    33    35    1
     5    33    32    1
     6    32    31    1
     7    31    30    1
     8    30    24    1
     9    24    25   ar
    10    25    26   ar
    11    26    27   ar
    12    27    23    1
    13    23     1    1
    14     1     2    1
    15     2     3    1
    16     3     4    1
    17     4     7    1
    18     7     8   am
    19     8     9    2
    20     8    11    1
    21    11    12   ar
    22    12    13   ar
    23    13    14    2
    24    13    15   ar
    25    15    16   ar
    26    16    17   ar
    27    17    18   ar
    28    18    19    1
    29    18    20   ar
    30    20    21   ar
    31    21    22   ar
    32     4     5    1
    33     5     6    1
    34    27    28   ar
    35    28    29   ar
    36    29    24   ar
    37     6     1    1
    38    22    11   ar
    39    21    15   ar
    40     7    10    1
@<TRIPOS>MOLECULE
*****
 37 40 0 0 0
SMALL
GASTEIGER

@<TRIPOS>ATOM
      1 N         138.9808  139.4938  158.0231 N.3     1  UNL1       -0.2689
      2 C         138.1807  140.5897  158.6626 C.3     1  UNL1        0.0741
      3 C         138.0432  140.6447  160.1553 C.3     1  UNL1        0.0369
      4 C         138.7058  139.6040  161.0084 C.3     1  UNL1        0.0747
      5 C         139.5059  138.5082  160.3689 C.3     1  UNL1        0.0369
      6 C         139.6434  138.4531  158.8763 C.3     1  UNL1        0.0741
      7 N         138.5682  139.6591  162.5011 N.am    1  UNL1       -0.2999
      8 C         139.7149  140.1349  163.3429 C.2     1  UNL1        0.2806
      9 O         140.9992  140.5555  162.6921 O.2     1  UNL1       -0.2668
     10 H         137.7253  139.3830  162.9283 H       1  UNL1        0.1498
     11 C         139.5773  140.1900  164.8356 C.ar    1  UNL1        0.2014
     12 C         138.6944  139.2060  165.5442 C.ar    1  UNL1        0.0843
     13 C         138.5567  139.2610  167.0368 C.ar    1  UNL1        0.2018
     14 O         137.6738  138.2770  167.7454 O.2     1  UNL1       -0.2864
     15 C         139.3021  140.3001  167.8209 C.ar    1  UNL1        0.0737
     16 C         139.1645  140.3552  169.3136 C.ar    1  UNL1        0.0085
     17 C         139.9098  141.3943  170.0976 C.ar    1  UNL1        0.0299
     18 C         140.7927  142.3783  169.3890 C.ar    1  UNL1        0.1432
     19 F         141.5380  143.4174  170.1731 F       1  UNL1       -0.2041
     20 C         140.9303  142.3232  167.8964 C.ar    1  UNL1        0.0672
     21 C         140.1850  141.2842  167.1124 C.ar    1  UNL1        0.1508
     22 O         140.3226  141.2291  165.6196 O.2     1  UNL1       -0.4486
     23 C         139.1184  139.4387  156.5305 C.3     1  UNL1        0.0992
     24 C         141.7959  136.3617  154.6297 C.ar    1  UNL1        0.1385
     25 C         142.3373  137.7179  154.9725 C.ar    1  UNL1        0.0366
     26 C         141.4448  138.7436  155.6061 C.ar    1  UNL1        0.0002
     27 C         140.0109  138.4131  155.8969 C.ar    1  UNL1       -0.0059
     28 C         139.4695  137.0569  155.5541 C.ar    1  UNL1        0.0002
     29 C         140.3620  136.0312  154.9205 C.ar    1  UNL1        0.0366
     30 O         142.6885  135.3361  153.9961 O.3     1  UNL1       -0.4754
     31 C         142.8069  133.9686  154.6010 C.3     1  UNL1        0.2078
     32 C         143.7147  133.7432  155.7737 C.3     1  UNL1        0.0745
     33 C         143.6045  132.4804  156.5756 C.3     1  UNL1        0.0966
     34 C         142.8235  131.8431  155.4649 C.3     1  UNL1        0.0298
     35 C         144.3855  133.1176  157.6864 C.3     1  UNL1        0.0298
     36 C         144.7181  130.6182  158.0046 C.3     1  UNL1        0.1739
     37 O         143.4944  131.2176  157.3776 O.3     1  UNL1       -0.3557
@<TRIPOS>BOND
     1    36    37    1
     2    37    33    1
     3    33    34    1
     4    33    35    1
     5    33    32    1
     6    32    31    1
     7    31    30    1
     8    30    24    1
     9    24    25   ar
    10    25    26   ar
    11    26    27   ar
    12    27    23    1
    13    23     1    1
    14     1     2    1
    15     2     3    1
    16     3     4    1
    17     4     7    1
    18     7     8   am
    19     8     9    2
    20     8    11    1
    21    11    12   ar
    22    12    13   ar
    23    13    14    2
    24    13    15   ar
    25    15    16   ar
    26    16    17   ar
    27    17    18   ar
    28    18    19    1
    29    18    20   ar
    30    20    21   ar
    31    21    22   ar
    32     4     5    1
    33     5     6    1
    34    27    28   ar
    35    28    29   ar
    36    29    24   ar
    37     6     1    1
    38    22    11   ar
    39    21    15   ar
    40     7    10    1
@<TRIPOS>MOLECULE
*****
 37 40 0 0 0
SMALL
GASTEIGER

@<TRIPOS>ATOM
      1 N         141.5847  138.0709  158.6104 N.3     1  UNL1       -0.2689
      2 C         142.5927  137.8950  159.7072 C.3     1  UNL1        0.0741
      3 C         142.1698  138.0172  161.1412 C.3     1  UNL1        0.0369
      4 C         140.7390  138.3153  161.4784 C.3     1  UNL1        0.0747
      5 C         139.7309  138.4913  160.3816 C.3     1  UNL1        0.0369
      6 C         140.1538  138.3691  158.9477 C.3     1  UNL1        0.0741
      7 N         140.3161  138.4375  162.9123 N.am    1  UNL1       -0.2999
      8 C         140.5624  139.7139  163.6607 C.2     1  UNL1        0.2806
      9 O         141.2315  140.8682  162.9752 O.2     1  UNL1       -0.2668
     10 H         139.8770  137.6799  163.3623 H       1  UNL1        0.1498
     11 C         140.1395  139.8361  165.0948 C.ar    1  UNL1        0.2014
     12 C         138.9915  139.0198  165.6103 C.ar    1  UNL1        0.0843
     13 C         138.5687  139.1419  167.0442 C.ar    1  UNL1        0.2018
     14 O         137.4207  138.3256  167.5597 O.2     1  UNL1       -0.2864
     15 C         139.2938  140.0803  167.9627 C.ar    1  UNL1        0.0737
     16 C         138.8709  140.2024  169.3966 C.ar    1  UNL1        0.0085
     17 C         139.5960  141.1408  170.3151 C.ar    1  UNL1        0.0299
     18 C         140.7440  141.9571  169.7996 C.ar    1  UNL1        0.1432
     19 F         141.4692  142.8956  170.7181 F       1  UNL1       -0.2041
     20 C         141.1669  141.8350  168.3656 C.ar    1  UNL1        0.0672
     21 C         140.4418  140.8966  167.4472 C.ar    1  UNL1        0.1508
     22 O         140.8647  140.7745  166.0132 O.2     1  UNL1       -0.4486
     23 C         142.0075  137.9487  157.1765 C.3     1  UNL1        0.0992
     24 C         142.3114  133.8894  155.2583 C.ar    1  UNL1        0.1385
     25 C         143.3875  134.3607  156.1909 C.ar    1  UNL1        0.0366
     26 C         143.2862  135.7138  156.8303 C.ar    1  UNL1        0.0002
     27 C         142.1088  136.5956  156.5371 C.ar    1  UNL1       -0.0059
     28 C         141.0327  136.1243  155.6045 C.ar    1  UNL1        0.0002
     29 C         141.1340  134.7712  154.9651 C.ar    1  UNL1        0.0366
     30 O         142.4126  132.5363  154.6190 O.3     1  UNL1       -0.4754
     31 C         141.8486  131.3335  155.3155 C.3     1  UNL1        0.2078
     32 C         141.7857  130.0150  154.6030 C.3     1  UNL1        0.0745
     33 C         140.5791  129.1370  154.7553 C.3     1  UNL1        0.0966
     34 C         139.6884  130.3334  154.5964 C.3     1  UNL1        0.0298
     35 C         141.4698  127.9406  154.9142 C.3     1  UNL1        0.0298
     36 C         139.1546  127.4984  156.1819 C.3     1  UNL1        0.1739
     37 O         139.3725  128.2590  154.9076 O.3     1  UNL1       -0.3557
@<TRIPOS>BOND
     1    36    37    1
     2    37    33    1
     3    33    34    1
     4    33    35    1
     5    33    32    1
     6    32    31    1
     7    31    30    1
     8    30    24    1
     9    24    25   ar
    10    25    26   ar
    11    26    27   ar
    12    27    23    1
    13    23     1    1
    14     1     2    1
    15     2     3    1
    16     3     4    1
    17     4     7    1
    18     7     8   am
    19     8     9    2
    20     8    11    1
    21    11    12   ar
    22    12    13   ar
    23    13    14    2
    24    13    15   ar
    25    15    16   ar
    26    16    17   ar
    27    17    18   ar
    28    18    19    1
    29    18    20   ar
    30    20    21   ar
    31    21    22   ar
    32     4     5    1
    33     5     6    1
    34    27    28   ar
    35    28    29   ar
    36    29    24   ar
    37     6     1    1
    38    22    11   ar
    39    21    15   ar
    40     7    10    1
