@<TRIPOS>MOLECULE
*****
 29 32 0 0 0
SMALL
GASTEIGER

@<TRIPOS>ATOM
      1 C         141.2643  142.4559  160.8281 C.ar    1  UNL1        0.1386
      2 C         142.6452  142.5796  161.4004 C.ar    1  UNL1        0.0369
      3 C         142.9808  141.9113  162.7007 C.ar    1  UNL1        0.0047
      4 C         141.9354  141.1193  163.4287 C.ar    1  UNL1        0.0196
      5 C         140.5544  140.9956  162.8564 C.ar    1  UNL1        0.0047
      6 C         140.2189  141.6639  161.5561 C.ar    1  UNL1        0.0369
      7 C         142.2710  140.4511  164.7290 C.ar    1  UNL1        0.1016
      8 C         143.1073  139.2059  164.7384 C.ar    1  UNL1        0.0258
      9 C         143.4429  138.5376  166.0388 C.ar    1  UNL1        0.0642
     10 C         142.9422  139.1146  167.3297 C.ar    1  UNL1        0.2830
     11 O         143.2777  138.4464  168.6300 O.2     1  UNL1       -0.2651
     12 N         142.1058  140.3598  167.3202 N.ar    1  UNL1       -0.1600
     13 N         141.7703  141.0280  166.0199 N.ar    1  UNL1       -0.1600
     14 C         141.6051  140.9368  168.6111 C.ar    1  UNL1        0.2557
     15 N         142.5789  141.4359  169.6372 N.ar    1  UNL1       -0.2083
     16 C         142.0781  142.0129  170.9281 C.ar    1  UNL1        0.1037
     17 C         140.6037  142.0907  171.1929 C.ar    1  UNL1        0.0415
     18 C         139.6301  141.5915  170.1669 C.ar    1  UNL1        0.1037
     19 N         140.1308  141.0146  168.8760 N.ar    1  UNL1       -0.2083
     20 O         140.9286  143.1242  159.5278 O.3     1  UNL1       -0.4754
     21 C         140.2373  144.4553  159.5251 C.3     1  UNL1        0.2068
     22 C         140.6759  145.5301  160.4752 C.3     1  UNL1        0.0646
     23 C         139.7478  146.0008  161.5554 C.3     1  UNL1        0.0759
     24 C         141.9844  145.3200  163.8321 C.3     1  UNL1        0.0173
     25 C         140.5610  144.8468  163.8251 C.3     1  UNL1        0.0576
     26 C         139.9158  143.9775  164.8634 C.3     1  UNL1        0.0174
     27 C         138.4890  143.7531  164.4586 C.3     1  UNL1        0.0187
     28 C         138.2524  144.4837  163.1702 C.3     1  UNL1        0.0721
     29 N         139.5330  145.1597  162.7786 N.3     1  UNL1       -0.2738
@<TRIPOS>BOND
     1    25    24    1
     2    25    26    1
     3    26    27    1
     4    27    28    1
     5    28    29    1
     6    29    23    1
     7    23    22    1
     8    22    21    1
     9    21    20    1
    10    20     1    1
    11     1     2   ar
    12     2     3   ar
    13     3     4   ar
    14     4     7    1
    15     7     8   ar
    16     8     9   ar
    17     9    10   ar
    18    10    11    2
    19    10    12   ar
    20    12    14    1
    21    14    15   ar
    22    15    16   ar
    23    16    17   ar
    24    17    18   ar
    25    18    19   ar
    26    12    13   ar
    27     4     5   ar
    28     5     6   ar
    29    29    25    1
    30     6     1   ar
    31    13     7   ar
    32    19    14   ar
@<TRIPOS>MOLECULE
*****
 29 32 0 0 0
SMALL
GASTEIGER

@<TRIPOS>ATOM
      1 C         138.8741  141.7576  160.8217 C.ar    1  UNL1        0.1386
      2 C         139.8796  140.7525  161.3000 C.ar    1  UNL1        0.0369
      3 C         139.9392  140.3843  162.7529 C.ar    1  UNL1        0.0047
      4 C         138.9933  141.0212  163.7274 C.ar    1  UNL1        0.0196
      5 C         137.9878  142.0262  163.2491 C.ar    1  UNL1        0.0047
      6 C         137.9282  142.3944  161.7962 C.ar    1  UNL1        0.0369
      7 C         139.0530  140.6529  165.1803 C.ar    1  UNL1        0.1016
      8 C         138.1725  139.5623  165.7144 C.ar    1  UNL1        0.0258
      9 C         138.2321  139.1941  167.1673 C.ar    1  UNL1        0.0642
     10 C         139.1723  139.9165  168.0861 C.ar    1  UNL1        0.2830
     11 O         139.2320  139.5483  169.5390 O.2     1  UNL1       -0.2651
     12 N         140.0529  141.0071  167.5520 N.ar    1  UNL1       -0.1600
     13 N         139.9932  141.3753  166.0991 N.ar    1  UNL1       -0.1600
     14 C         140.9931  141.7295  168.4708 C.ar    1  UNL1        0.2557
     15 N         140.5066  142.9004  169.2724 N.ar    1  UNL1       -0.2083
     16 C         141.4468  143.6228  170.1912 C.ar    1  UNL1        0.1037
     17 C         142.8735  143.1743  170.3083 C.ar    1  UNL1        0.0415
     18 C         143.3599  142.0035  169.5067 C.ar    1  UNL1        0.1037
     19 N         142.4197  141.2811  168.5879 N.ar    1  UNL1       -0.2083
     20 O         138.8145  142.1258  159.3688 O.3     1  UNL1       -0.4754
     21 C         139.9265  142.9198  158.7500 C.3     1  UNL1        0.2068
     22 C         140.0262  144.3949  159.0038 C.3     1  UNL1        0.0646
     23 C         141.0729  144.9262  159.9376 C.3     1  UNL1        0.0759
     24 C         142.8197  142.9229  161.8310 C.3     1  UNL1        0.0173
     25 C         141.7174  143.8312  162.2893 C.3     1  UNL1        0.0576
     26 C         141.2244  143.9781  163.6983 C.3     1  UNL1        0.0174
     27 C         140.1169  144.9897  163.6988 C.3     1  UNL1        0.0187
     28 C         139.9253  145.4680  162.2901 C.3     1  UNL1        0.0721
     29 N         140.9145  144.7520  161.4189 N.3     1  UNL1       -0.2738
@<TRIPOS>BOND
     1    25    24    1
     2    25    26    1
     3    26    27    1
     4    27    28    1
     5    28    29    1
     6    29    23    1
     7    23    22    1
     8    22    21    1
     9    21    20    1
    10    20     1    1
    11     1     2   ar
    12     2     3   ar
    13     3     4   ar
    14     4     7    1
    15     7     8   ar
    16     8     9   ar
    17     9    10   ar
    18    10    11    2
    19    10    12   ar
    20    12    14    1
    21    14    15   ar
    22    15    16   ar
    23    16    17   ar
    24    17    18   ar
    25    18    19   ar
    26    12    13   ar
    27     4     5   ar
    28     5     6   ar
    29    29    25    1
    30     6     1   ar
    31    13     7   ar
    32    19    14   ar
@<TRIPOS>MOLECULE
*****
 29 32 0 0 0
SMALL
GASTEIGER

@<TRIPOS>ATOM
      1 C         142.0556  143.8184  161.4641 C.ar    1  UNL1        0.1386
      2 C         141.7652  142.3642  161.2386 C.ar    1  UNL1        0.0369
      3 C         142.0309  141.3686  162.3286 C.ar    1  UNL1        0.0047
      4 C         142.5869  141.8271  163.6441 C.ar    1  UNL1        0.0196
      5 C         142.8773  143.2813  163.8696 C.ar    1  UNL1        0.0047
      6 C         142.6116  144.2770  162.7796 C.ar    1  UNL1        0.0369
      7 C         142.8526  140.8314  164.7341 C.ar    1  UNL1        0.1016
      8 C         143.7025  139.6266  164.4585 C.ar    1  UNL1        0.0258
      9 C         143.9682  138.6309  165.5485 C.ar    1  UNL1        0.0642
     10 C         143.3838  138.8401  166.9141 C.ar    1  UNL1        0.2830
     11 O         143.6494  137.8444  168.0041 O.2     1  UNL1       -0.2651
     12 N         142.5338  140.0449  167.1897 N.ar    1  UNL1       -0.1600
     13 N         142.2682  141.0406  166.0997 N.ar    1  UNL1       -0.1600
     14 C         141.9495  140.2541  168.5552 C.ar    1  UNL1        0.2557
     15 N         140.4900  140.0020  168.7932 N.ar    1  UNL1       -0.2083
     16 C         139.9057  140.2112  170.1587 C.ar    1  UNL1        0.1037
     17 C         140.7808  140.6724  171.2864 C.ar    1  UNL1        0.0415
     18 C         142.2401  140.9245  171.0484 C.ar    1  UNL1        0.1037
     19 N         142.8245  140.7153  169.6829 N.ar    1  UNL1       -0.2083
     20 O         141.7899  144.8141  160.3741 O.3     1  UNL1       -0.4754
     21 C         140.4833  145.5495  160.3323 C.3     1  UNL1        0.2068
     22 C         139.9381  146.1815  161.5786 C.3     1  UNL1        0.0646
     23 C         138.7555  145.5732  162.2725 C.3     1  UNL1        0.0759
     24 C         138.1119  142.3970  161.8888 C.3     1  UNL1        0.0173
     25 C         138.6638  143.0417  163.1257 C.3     1  UNL1        0.0576
     26 C         139.0167  142.3396  164.4034 C.3     1  UNL1        0.0174
     27 C         139.5307  143.3656  165.3694 C.3     1  UNL1        0.0187
     28 C         139.4954  144.7018  164.6887 C.3     1  UNL1        0.0721
     29 N         138.9596  144.5016  163.3020 N.3     1  UNL1       -0.2738
@<TRIPOS>BOND
     1    25    24    1
     2    25    26    1
     3    26    27    1
     4    27    28    1
     5    28    29    1
     6    29    23    1
     7    23    22    1
     8    22    21    1
     9    21    20    1
    10    20     1    1
    11     1     2   ar
    12     2     3   ar
    13     3     4   ar
    14     4     7    1
    15     7     8   ar
    16     8     9   ar
    17     9    10   ar
    18    10    11    2
    19    10    12   ar
    20    12    14    1
    21    14    15   ar
    22    15    16   ar
    23    16    17   ar
    24    17    18   ar
    25    18    19   ar
    26    12    13   ar
    27     4     5   ar
    28     5     6   ar
    29    29    25    1
    30     6     1   ar
    31    13     7   ar
    32    19    14   ar
@<TRIPOS>MOLECULE
*****
 29 32 0 0 0
SMALL
GASTEIGER

@<TRIPOS>ATOM
      1 C         140.1952  139.2051  160.8047 C.ar    1  UNL1        0.1386
      2 C         140.4063  140.5088  161.5158 C.ar    1  UNL1        0.0369
      3 C         140.1478  140.6095  162.9899 C.ar    1  UNL1        0.0047
      4 C         139.6782  139.4065  163.7529 C.ar    1  UNL1        0.0196
      5 C         139.4670  138.1028  163.0418 C.ar    1  UNL1        0.0047
      6 C         139.7255  138.0021  161.5677 C.ar    1  UNL1        0.0369
      7 C         139.4196  139.5072  165.2271 C.ar    1  UNL1        0.1016
      8 C         138.2549  138.7839  165.8354 C.ar    1  UNL1        0.0258
      9 C         137.9964  138.8846  167.3096 C.ar    1  UNL1        0.0642
     10 C         138.9027  139.7087  168.1753 C.ar    1  UNL1        0.2830
     11 O         138.6442  139.8095  169.6494 O.2     1  UNL1       -0.2651
     12 N         140.0675  140.4321  167.5669 N.ar    1  UNL1       -0.1600
     13 N         140.3259  140.3313  166.0928 N.ar    1  UNL1       -0.1600
     14 C         140.9737  141.2562  168.4326 C.ar    1  UNL1        0.2557
     15 N         142.3550  140.7664  168.7524 N.ar    1  UNL1       -0.2083
     16 C         143.2613  141.5905  169.6181 C.ar    1  UNL1        0.1037
     17 C         142.7863  142.9044  170.1641 C.ar    1  UNL1        0.0415
     18 C         141.4050  143.3942  169.8444 C.ar    1  UNL1        0.1037
     19 N         140.4988  142.5701  168.9786 N.ar    1  UNL1       -0.2083
     20 O         140.4537  139.1044  159.3305 O.3     1  UNL1       -0.4754
     21 C         141.8622  139.0953  158.8150 C.3     1  UNL1        0.2068
     22 C         142.9338  139.8475  159.5473 C.3     1  UNL1        0.0646
     23 C         143.8668  139.1179  160.4677 C.3     1  UNL1        0.0759
     24 C         144.9204  141.7442  162.0932 C.3     1  UNL1        0.0173
     25 C         144.2620  140.5391  162.6968 C.3     1  UNL1        0.0576
     26 C         143.9724  140.3296  164.1536 C.3     1  UNL1        0.0174
     27 C         143.3091  138.9930  164.3068 C.3     1  UNL1        0.0187
     28 C         143.1888  138.3764  162.9447 C.3     1  UNL1        0.0721
     29 N         143.7777  139.3320  161.9497 N.3     1  UNL1       -0.2738
@<TRIPOS>BOND
     1    25    24    1
     2    25    26    1
     3    26    27    1
     4    27    28    1
     5    28    29    1
     6    29    23    1
     7    23    22    1
     8    22    21    1
     9    21    20    1
    10    20     1    1
    11     1     2   ar
    12     2     3   ar
    13     3     4   ar
    14     4     7    1
    15     7     8   ar
    16     8     9   ar
    17     9    10   ar
    18    10    11    2
    19    10    12   ar
    20    12    14    1
    21    14    15   ar
    22    15    16   ar
    23    16    17   ar
    24    17    18   ar
    25    18    19   ar
    26    12    13   ar
    27     4     5   ar
    28     5     6   ar
    29    29    25    1
    30     6     1   ar
    31    13     7   ar
    32    19    14   ar
@<TRIPOS>MOLECULE
*****
 29 32 0 0 0
SMALL
GASTEIGER

@<TRIPOS>ATOM
      1 C         142.6587  138.8674  165.3555 C.ar    1  UNL1        0.1386
      2 C         143.1672  139.8360  164.3293 C.ar    1  UNL1        0.0369
      3 C         142.6821  139.7510  162.9125 C.ar    1  UNL1        0.0047
      4 C         141.6884  138.6974  162.5219 C.ar    1  UNL1        0.0196
      5 C         141.1799  137.7289  163.5481 C.ar    1  UNL1        0.0047
      6 C         141.6650  137.8138  164.9649 C.ar    1  UNL1        0.0369
      7 C         141.2033  138.6125  161.1050 C.ar    1  UNL1        0.1016
      8 C         139.7906  138.9912  160.7720 C.ar    1  UNL1        0.0258
      9 C         139.3055  138.9063  159.3551 C.ar    1  UNL1        0.0642
     10 C         140.2331  138.4426  158.2713 C.ar    1  UNL1        0.2830
     11 O         139.7480  138.3576  156.8545 O.2     1  UNL1       -0.2651
     12 N         141.6458  138.0638  158.6044 N.ar    1  UNL1       -0.1600
     13 N         142.1308  138.1488  160.0212 N.ar    1  UNL1       -0.1600
     14 C         142.5733  137.6001  157.5206 C.ar    1  UNL1        0.2557
     15 N         142.6935  136.1372  157.2114 N.ar    1  UNL1       -0.2083
     16 C         143.6211  135.6735  156.1276 C.ar    1  UNL1        0.1037
     17 C         144.4285  136.6726  155.3531 C.ar    1  UNL1        0.0415
     18 C         144.3083  138.1355  155.6623 C.ar    1  UNL1        0.1037
     19 N         143.3807  138.5992  156.7461 N.ar    1  UNL1       -0.2083
     20 O         143.1438  138.9524  166.7724 O.3     1  UNL1       -0.4754
     21 C         142.5842  139.9938  167.6956 C.3     1  UNL1        0.2068
     22 C         141.2068  139.8282  168.2660 C.3     1  UNL1        0.0646
     23 C         140.0931  140.7228  167.8087 C.3     1  UNL1        0.0759
     24 C         137.8431  138.6226  166.7243 C.3     1  UNL1        0.0173
     25 C         138.5489  139.6606  165.9030 C.3     1  UNL1        0.0576
     26 C         138.3443  139.9154  164.4390 C.3     1  UNL1        0.0174
     27 C         139.2521  141.0383  164.0327 C.3     1  UNL1        0.0187
     28 C         140.0177  141.4774  165.2455 C.3     1  UNL1        0.0721
     29 N         139.5830  140.6260  166.4014 N.3     1  UNL1       -0.2738
@<TRIPOS>BOND
     1    25    24    1
     2    25    26    1
     3    26    27    1
     4    27    28    1
     5    28    29    1
     6    29    23    1
     7    23    22    1
     8    22    21    1
     9    21    20    1
    10    20     1    1
    11     1     2   ar
    12     2     3   ar
    13     3     4   ar
    14     4     7    1
    15     7     8   ar
    16     8     9   ar
    17     9    10   ar
    18    10    11    2
    19    10    12   ar
    20    12    14    1
    21    14    15   ar
    22    15    16   ar
    23    16    17   ar
    24    17    18   ar
    25    18    19   ar
    26    12    13   ar
    27     4     5   ar
    28     5     6   ar
    29    29    25    1
    30     6     1   ar
    31    13     7   ar
    32    19    14   ar
@<TRIPOS>MOLECULE
*****
 29 32 0 0 0
SMALL
GASTEIGER

@<TRIPOS>ATOM
      1 C         140.8809  140.3585  160.6327 C.ar    1  UNL1        0.1386
      2 C         139.8228  139.3706  161.0256 C.ar    1  UNL1        0.0369
      3 C         139.4240  139.2315  162.4649 C.ar    1  UNL1        0.0047
      4 C         140.0834  140.0802  163.5113 C.ar    1  UNL1        0.0196
      5 C         141.1415  141.0680  163.1184 C.ar    1  UNL1        0.0047
      6 C         141.5403  141.2072  161.6791 C.ar    1  UNL1        0.0369
      7 C         139.6845  139.9409  164.9506 C.ar    1  UNL1        0.1016
      8 C         138.5244  139.0675  165.3263 C.ar    1  UNL1        0.0258
      9 C         138.1255  138.9283  166.7656 C.ar    1  UNL1        0.0642
     10 C         138.8869  139.6625  167.8292 C.ar    1  UNL1        0.2830
     11 O         138.4881  139.5234  169.2685 O.2     1  UNL1       -0.2651
     12 N         140.0471  140.5360  167.4535 N.ar    1  UNL1       -0.1600
     13 N         140.4459  140.6752  166.0142 N.ar    1  UNL1       -0.1600
     14 C         140.8085  141.2702  168.5171 C.ar    1  UNL1        0.2557
     15 N         140.4875  142.7051  168.8141 N.ar    1  UNL1       -0.2083
     16 C         141.2489  143.4393  169.8777 C.ar    1  UNL1        0.1037
     17 C         142.3312  142.7386  170.6443 C.ar    1  UNL1        0.0415
     18 C         142.6522  141.3038  170.3472 C.ar    1  UNL1        0.1037
     19 N         141.8908  140.5696  169.2836 N.ar    1  UNL1       -0.2083
     20 O         141.2798  140.4977  159.1934 O.3     1  UNL1       -0.4754
     21 C         140.9346  141.7461  158.4368 C.3     1  UNL1        0.2068
     22 C         139.6695  142.4882  158.7515 C.3     1  UNL1        0.0646
     23 C         139.7112  143.7023  159.6313 C.3     1  UNL1        0.0759
     24 C         140.2338  145.8330  162.0471 C.3     1  UNL1        0.0173
     25 C         139.3215  144.6437  162.1025 C.3     1  UNL1        0.0576
     26 C         138.4892  144.2249  163.2781 C.3     1  UNL1        0.0174
     27 C         137.7346  142.9866  162.8942 C.3     1  UNL1        0.0187
     28 C         138.1005  142.6402  161.4814 C.3     1  UNL1        0.0721
     29 N         139.0813  143.6643  160.9921 N.3     1  UNL1       -0.2738
@<TRIPOS>BOND
     1    25    24    1
     2    25    26    1
     3    26    27    1
     4    27    28    1
     5    28    29    1
     6    29    23    1
     7    23    22    1
     8    22    21    1
     9    21    20    1
    10    20     1    1
    11     1     2   ar
    12     2     3   ar
    13     3     4   ar
    14     4     7    1
    15     7     8   ar
    16     8     9   ar
    17     9    10   ar
    18    10    11    2
    19    10    12   ar
    20    12    14    1
    21    14    15   ar
    22    15    16   ar
    23    16    17   ar
    24    17    18   ar
    25    18    19   ar
    26    12    13   ar
    27     4     5   ar
    28     5     6   ar
    29    29    25    1
    30     6     1   ar
    31    13     7   ar
    32    19    14   ar
@<TRIPOS>MOLECULE
*****
 29 32 0 0 0
SMALL
GASTEIGER

@<TRIPOS>ATOM
      1 C         141.2653  138.3707  161.2947 C.ar    1  UNL1        0.1386
      2 C         140.1024  139.2935  161.5089 C.ar    1  UNL1        0.0369
      3 C         139.5501  139.4963  162.8887 C.ar    1  UNL1        0.0047
      4 C         140.1608  138.7763  164.0543 C.ar    1  UNL1        0.0196
      5 C         141.3238  137.8535  163.8401 C.ar    1  UNL1        0.0047
      6 C         141.8760  137.6507  162.4603 C.ar    1  UNL1        0.0369
      7 C         139.6085  138.9791  165.4341 C.ar    1  UNL1        0.1016
      8 C         138.2771  138.3946  165.8025 C.ar    1  UNL1        0.0258
      9 C         137.7248  138.5974  167.1823 C.ar    1  UNL1        0.0642
     10 C         138.5039  139.3848  168.1937 C.ar    1  UNL1        0.2830
     11 O         137.9517  139.5876  169.5735 O.2     1  UNL1       -0.2651
     12 N         139.8354  139.9693  167.8253 N.ar    1  UNL1       -0.1600
     13 N         140.3876  139.7665  166.4455 N.ar    1  UNL1       -0.1600
     14 C         140.6145  140.7567  168.8368 C.ar    1  UNL1        0.2557
     15 N         140.7588  142.2418  168.6818 N.ar    1  UNL1       -0.2083
     16 C         141.5380  143.0291  169.6932 C.ar    1  UNL1        0.1037
     17 C         142.1727  142.3315  170.8596 C.ar    1  UNL1        0.0415
     18 C         142.0284  140.8466  171.0145 C.ar    1  UNL1        0.1037
     19 N         141.2493  140.0592  170.0031 N.ar    1  UNL1       -0.2083
     20 O         141.8176  138.1679  159.9149 O.3     1  UNL1       -0.4754
     21 C         143.0318  138.9301  159.4735 C.3     1  UNL1        0.2068
     22 C         142.9908  140.4276  159.3979 C.3     1  UNL1        0.0646
     23 C         143.8289  141.2490  160.3323 C.3     1  UNL1        0.0759
     24 C         141.6070  142.6231  162.2879 C.3     1  UNL1        0.0173
     25 C         142.6935  141.6804  162.7133 C.3     1  UNL1        0.0576
     26 C         142.9495  141.2040  164.1124 C.3     1  UNL1        0.0174
     27 C         144.1290  140.2778  164.0782 C.3     1  UNL1        0.0187
     28 C         144.6019  140.1820  162.6580 C.3     1  UNL1        0.0721
     29 N         143.7148  141.0488  161.8144 N.3     1  UNL1       -0.2738
@<TRIPOS>BOND
     1    25    24    1
     2    25    26    1
     3    26    27    1
     4    27    28    1
     5    28    29    1
     6    29    23    1
     7    23    22    1
     8    22    21    1
     9    21    20    1
    10    20     1    1
    11     1     2   ar
    12     2     3   ar
    13     3     4   ar
    14     4     7    1
    15     7     8   ar
    16     8     9   ar
    17     9    10   ar
    18    10    11    2
    19    10    12   ar
    20    12    14    1
    21    14    15   ar
    22    15    16   ar
    23    16    17   ar
    24    17    18   ar
    25    18    19   ar
    26    12    13   ar
    27     4     5   ar
    28     5     6   ar
    29    29    25    1
    30     6     1   ar
    31    13     7   ar
    32    19    14   ar
@<TRIPOS>MOLECULE
*****
 29 32 0 0 0
SMALL
GASTEIGER

@<TRIPOS>ATOM
      1 C         141.9361  140.2693  160.8488 C.ar    1  UNL1        0.1386
      2 C         140.6048  140.9021  161.1262 C.ar    1  UNL1        0.0369
      3 C         139.9660  140.7448  162.4742 C.ar    1  UNL1        0.0047
      4 C         140.6585  139.9548  163.5448 C.ar    1  UNL1        0.0196
      5 C         141.9899  139.3220  163.2674 C.ar    1  UNL1        0.0047
      6 C         142.6287  139.4792  161.9194 C.ar    1  UNL1        0.0369
      7 C         140.0196  139.7975  164.8928 C.ar    1  UNL1        0.1016
      8 C         138.7496  139.0119  165.0339 C.ar    1  UNL1        0.0258
      9 C         138.1108  138.8547  166.3819 C.ar    1  UNL1        0.0642
     10 C         138.7420  139.4831  167.5889 C.ar    1  UNL1        0.2830
     11 O         138.1032  139.3258  168.9369 O.2     1  UNL1       -0.2651
     12 N         140.0120  140.2687  167.4478 N.ar    1  UNL1       -0.1600
     13 N         140.6508  140.4259  166.0998 N.ar    1  UNL1       -0.1600
     14 C         140.6432  140.8971  168.6548 C.ar    1  UNL1        0.2557
     15 N         141.3352  140.0387  169.6718 N.ar    1  UNL1       -0.2083
     16 C         141.9664  140.6671  170.8788 C.ar    1  UNL1        0.1037
     17 C         141.9056  142.1538  171.0687 C.ar    1  UNL1        0.0415
     18 C         141.2136  143.0121  170.0516 C.ar    1  UNL1        0.1037
     19 N         140.5824  142.3837  168.8447 N.ar    1  UNL1       -0.2083
     20 O         142.5750  140.4265  159.5007 O.3     1  UNL1       -0.4754
     21 C         143.8043  141.2723  159.3474 C.3     1  UNL1        0.2068
     22 C         143.8454  142.6500  159.9393 C.3     1  UNL1        0.0646
     23 C         144.6274  142.9043  161.1938 C.3     1  UNL1        0.0759
     24 C         145.7246  141.4006  163.8741 C.3     1  UNL1        0.0173
     25 C         144.4447  142.1743  163.7586 C.3     1  UNL1        0.0576
     26 C         143.4444  142.3925  164.8549 C.3     1  UNL1        0.0174
     27 C         142.3218  143.2186  164.3004 C.3     1  UNL1        0.0187
     28 C         142.6284  143.5109  162.8614 C.3     1  UNL1        0.0721
     29 N         143.9404  142.8654  162.5266 N.3     1  UNL1       -0.2738
@<TRIPOS>BOND
     1    25    24    1
     2    25    26    1
     3    26    27    1
     4    27    28    1
     5    28    29    1
     6    29    23    1
     7    23    22    1
     8    22    21    1
     9    21    20    1
    10    20     1    1
    11     1     2   ar
    12     2     3   ar
    13     3     4   ar
    14     4     7    1
    15     7     8   ar
    16     8     9   ar
    17     9    10   ar
    18    10    11    2
    19    10    12   ar
    20    12    14    1
    21    14    15   ar
    22    15    16   ar
    23    16    17   ar
    24    17    18   ar
    25    18    19   ar
    26    12    13   ar
    27     4     5   ar
    28     5     6   ar
    29    29    25    1
    30     6     1   ar
    31    13     7   ar
    32    19    14   ar
@<TRIPOS>MOLECULE
*****
 29 32 0 0 0
SMALL
GASTEIGER

@<TRIPOS>ATOM
      1 C         141.3883  140.9631  160.2253 C.ar    1  UNL1        0.1386
      2 C         141.3191  142.0173  161.2902 C.ar    1  UNL1        0.0369
      3 C         141.5997  141.6590  162.7194 C.ar    1  UNL1        0.0047
      4 C         141.9495  140.2466  163.0839 C.ar    1  UNL1        0.0196
      5 C         142.0186  139.1925  162.0190 C.ar    1  UNL1        0.0047
      6 C         141.7380  139.5507  160.5897 C.ar    1  UNL1        0.0369
      7 C         142.2301  139.8884  164.5132 C.ar    1  UNL1        0.1016
      8 C         143.1826  138.7751  164.8343 C.ar    1  UNL1        0.0258
      9 C         143.4632  138.4169  166.2637 C.ar    1  UNL1        0.0642
     10 C         142.7912  139.1720  167.3719 C.ar    1  UNL1        0.2830
     11 O         143.0718  138.8139  168.8012 O.2     1  UNL1       -0.2651
     12 N         141.8387  140.2854  167.0508 N.ar    1  UNL1       -0.1600
     13 N         141.5581  140.6436  165.6215 N.ar    1  UNL1       -0.1600
     14 C         141.1667  141.0406  168.1590 C.ar    1  UNL1        0.2557
     15 N         141.4915  142.4875  168.3851 N.ar    1  UNL1       -0.2083
     16 C         140.8196  143.2427  169.4933 C.ar    1  UNL1        0.1037
     17 C         139.8228  142.5510  170.3755 C.ar    1  UNL1        0.0415
     18 C         139.4981  141.1042  170.1494 C.ar    1  UNL1        0.1037
     19 N         140.1701  140.3490  169.0411 N.ar    1  UNL1       -0.2083
     20 O         141.1077  141.3213  158.7959 O.3     1  UNL1       -0.4754
     21 C         139.7412  141.0946  158.2203 C.3     1  UNL1        0.2068
     22 C         138.5245  141.2986  159.0736 C.3     1  UNL1        0.0646
     23 C         137.7849  140.1139  159.6207 C.3     1  UNL1        0.0759
     24 C         137.7126  141.8930  162.3555 C.3     1  UNL1        0.0173
     25 C         138.0502  140.4346  162.2611 C.3     1  UNL1        0.0576
     26 C         138.4140  139.5378  163.4072 C.3     1  UNL1        0.0174
     27 C         138.6720  138.1658  162.8585 C.3     1  UNL1        0.0187
     28 C         138.4678  138.2147  161.3733 C.3     1  UNL1        0.0721
     29 N         138.0835  139.6168  161.0041 N.3     1  UNL1       -0.2738
@<TRIPOS>BOND
     1    25    24    1
     2    25    26    1
     3    26    27    1
     4    27    28    1
     5    28    29    1
     6    29    23    1
     7    23    22    1
     8    22    21    1
     9    21    20    1
    10    20     1    1
    11     1     2   ar
    12     2     3   ar
    13     3     4   ar
    14     4     7    1
    15     7     8   ar
    16     8     9   ar
    17     9    10   ar
    18    10    11    2
    19    10    12   ar
    20    12    14    1
    21    14    15   ar
    22    15    16   ar
    23    16    17   ar
    24    17    18   ar
    25    18    19   ar
    26    12    13   ar
    27     4     5   ar
    28     5     6   ar
    29    29    25    1
    30     6     1   ar
    31    13     7   ar
    32    19    14   ar
