@<TRIPOS>MOLECULE
*****
 29 32 0 0 0
SMALL
GASTEIGER

@<TRIPOS>ATOM
      1 C         140.4209  138.2617  162.3619 C.ar    1  UNL1        0.2615
      2 N         140.8944  138.9434  163.6112 N.ar    1  UNL1       -0.1869
      3 C         139.8650  138.7209  164.6793 C.ar    1  UNL1        0.2036
      4 N         138.7553  137.9016  164.0900 N.ar    1  UNL1       -0.0556
      5 O         139.0989  137.6178  162.6577 O.2     1  UNL1       -0.3324
      6 C         139.9333  139.2286  166.0891 C.ar    1  UNL1        0.0388
      7 C         138.6973  139.2518  166.9386 C.ar    1  UNL1        0.0028
      8 C         138.7656  139.7595  168.3484 C.ar    1  UNL1       -0.0044
      9 C         140.0700  140.2439  168.9087 C.ar    1  UNL1       -0.0247
     10 C         141.3059  140.2207  168.0593 C.ar    1  UNL1       -0.0246
     11 C         141.2377  139.7130  166.6495 C.ar    1  UNL1       -0.0014
     12 C         142.6963  140.6540  168.4189 C.3     1  UNL1        0.0431
     13 C         143.1939  141.2176  169.7170 C.3     1  UNL1        0.0733
     14 N         142.4241  141.4870  170.9758 N.3     1  UNL1       -0.2969
     15 C         140.9666  141.2595  171.2477 C.3     1  UNL1        0.0733
     16 C         139.9189  140.7063  170.3277 C.3     1  UNL1        0.0431
     17 H         142.5649  142.4815  171.1535 H       1  UNL1        0.1233
     18 C         142.5864  138.1650  158.4183 C.ar    1  UNL1        0.2346
     19 N         143.2946  137.7484  159.6732 N.ar    1  UNL1       -0.2094
     20 C         142.5728  137.7806  160.9877 C.ar    1  UNL1        0.1068
     21 C         141.1428  138.2294  161.0473 C.ar    1  UNL1        0.0761
     22 C         140.4346  138.6460  159.7923 C.ar    1  UNL1        0.0213
     23 C         141.1564  138.6138  158.4778 C.ar    1  UNL1        0.1216
     24 C         140.4481  139.0304  157.2229 C.1     1  UNL1        0.1051
     25 N         139.7399  139.4470  155.9680 N.1     1  UNL1       -0.1907
     26 O         143.3082  138.1328  157.1038 O.3     1  UNL1       -0.4635
     27 C         142.3542  135.7782  156.5592 C.3     1  UNL1        0.0473
     28 C         143.3597  136.8626  156.3074 C.3     1  UNL1        0.1678
     29 C         144.4164  136.6768  155.2593 C.3     1  UNL1        0.0473
@<TRIPOS>BOND
     1    27    28    1
     2    28    29    1
     3    28    26    1
     4    26    18    1
     5    18    19   ar
     6    19    20   ar
     7    20    21   ar
     8    21     1    1
     9     1     2   ar
    10     2     3   ar
    11     3     6    1
    12     6     7   ar
    13     7     8   ar
    14     8     9   ar
    15     9    10   ar
    16    10    11   ar
    17    10    12    1
    18    12    13    1
    19    13    14    1
    20    14    15    1
    21    15    16    1
    22     3     4   ar
    23     4     5   ar
    24    21    22   ar
    25    22    23   ar
    26    23    24    1
    27    24    25    3
    28    23    18   ar
    29     5     1   ar
    30    11     6   ar
    31    16     9    1
    32    14    17    1
@<TRIPOS>MOLECULE
*****
 29 32 0 0 0
SMALL
GASTEIGER

@<TRIPOS>ATOM
      1 C         140.5199  138.6122  162.0519 C.ar    1  UNL1        0.2615
      2 N         140.8551  139.7517  162.9678 N.ar    1  UNL1       -0.1869
      3 C         140.1422  139.5263  164.2682 C.ar    1  UNL1        0.2036
      4 N         139.3664  138.2474  164.1560 N.ar    1  UNL1       -0.0556
      5 O         139.5999  137.6824  162.7861 O.2     1  UNL1       -0.3324
      6 C         140.1957  140.4225  165.4698 C.ar    1  UNL1        0.0388
      7 C         140.2630  141.9106  165.2932 C.ar    1  UNL1        0.0028
      8 C         140.3165  142.8069  166.4948 C.ar    1  UNL1       -0.0044
      9 C         140.3027  142.2150  167.8731 C.ar    1  UNL1       -0.0247
     10 C         140.2355  140.7271  168.0497 C.ar    1  UNL1       -0.0246
     11 C         140.1819  139.8308  166.8481 C.ar    1  UNL1       -0.0014
     12 C         140.2115  139.9366  169.3244 C.3     1  UNL1        0.0431
     13 C         140.2488  140.4392  170.7373 C.3     1  UNL1        0.0733
     14 N         140.3194  141.8561  171.2243 N.3     1  UNL1       -0.2969
     15 C         140.3701  143.1205  170.4189 C.3     1  UNL1        0.0733
     16 C         140.3626  143.2803  168.9275 C.3     1  UNL1        0.0431
     17 H         141.1603  141.8865  171.8008 H       1  UNL1        0.1233
     18 C         142.0124  138.0765  157.8405 C.ar    1  UNL1        0.2346
     19 N         142.9652  137.9657  158.9937 N.ar    1  UNL1       -0.2094
     20 C         142.4677  138.1443  160.3974 C.ar    1  UNL1        0.1068
     21 C         141.0174  138.4336  160.6480 C.ar    1  UNL1        0.0761
     22 C         140.0646  138.5444  159.4949 C.ar    1  UNL1        0.0213
     23 C         140.5620  138.3659  158.0911 C.ar    1  UNL1        0.1216
     24 C         139.6092  138.4767  156.9379 C.1     1  UNL1        0.1051
     25 N         138.6563  138.5875  155.7847 N.1     1  UNL1       -0.1907
     26 O         142.5099  137.8980  156.4367 O.3     1  UNL1       -0.4635
     27 C         141.6266  135.5572  155.7362 C.3     1  UNL1        0.0473
     28 C         142.7648  136.5203  155.9009 C.3     1  UNL1        0.1678
     29 C         144.1577  136.1057  155.5299 C.3     1  UNL1        0.0473
@<TRIPOS>BOND
     1    27    28    1
     2    28    29    1
     3    28    26    1
     4    26    18    1
     5    18    19   ar
     6    19    20   ar
     7    20    21   ar
     8    21     1    1
     9     1     2   ar
    10     2     3   ar
    11     3     6    1
    12     6     7   ar
    13     7     8   ar
    14     8     9   ar
    15     9    10   ar
    16    10    11   ar
    17    10    12    1
    18    12    13    1
    19    13    14    1
    20    14    15    1
    21    15    16    1
    22     3     4   ar
    23     4     5   ar
    24    21    22   ar
    25    22    23   ar
    26    23    24    1
    27    24    25    3
    28    23    18   ar
    29     5     1   ar
    30    11     6   ar
    31    16     9    1
    32    14    17    1
@<TRIPOS>MOLECULE
*****
 29 32 0 0 0
SMALL
GASTEIGER

@<TRIPOS>ATOM
      1 C         140.5330  138.2472  162.1935 C.ar    1  UNL1        0.2615
      2 N         140.2544  139.2035  163.3149 N.ar    1  UNL1       -0.1869
      3 C         140.5649  138.5066  164.6064 C.ar    1  UNL1        0.2036
      4 N         141.0355  137.1195  164.2832 N.ar    1  UNL1       -0.0556
      5 O         141.0158  136.9592  162.7918 O.2     1  UNL1       -0.3324
      6 C         140.4287  139.0938  165.9800 C.ar    1  UNL1        0.0388
      7 C         139.0716  139.2399  166.6020 C.ar    1  UNL1        0.0028
      8 C         138.9353  139.8271  167.9756 C.ar    1  UNL1       -0.0044
      9 C         140.1563  140.2681  168.7271 C.ar    1  UNL1       -0.0247
     10 C         141.5133  140.1220  168.1051 C.ar    1  UNL1       -0.0246
     11 C         141.6496  139.5349  166.7316 C.ar    1  UNL1       -0.0014
     12 C         142.8492  140.4950  168.6766 C.3     1  UNL1        0.0431
     13 C         143.1577  141.1063  170.0113 C.3     1  UNL1        0.0733
     14 N         142.2067  141.4955  171.1039 N.3     1  UNL1       -0.2969
     15 C         140.7122  141.3696  171.1320 C.3     1  UNL1        0.0733
     16 C         139.7997  140.8234  170.0742 C.3     1  UNL1        0.0431
     17 H         142.3823  142.4891  171.2535 H       1  UNL1        0.1233
     18 C         140.0122  139.0934  157.8045 C.ar    1  UNL1        0.2346
     19 N         138.8622  139.2886  158.7476 N.ar    1  UNL1       -0.2094
     20 C         139.0358  139.0066  160.2106 C.ar    1  UNL1        0.1068
     21 C         140.3594  138.5293  160.7305 C.ar    1  UNL1        0.0761
     22 C         141.5094  138.3340  159.7874 C.ar    1  UNL1        0.0213
     23 C         141.3358  138.6161  158.3244 C.ar    1  UNL1        0.1216
     24 C         142.4858  138.4208  157.3813 C.1     1  UNL1        0.1051
     25 N         143.6358  138.2255  156.4383 N.1     1  UNL1       -0.1907
     26 O         139.8386  139.3754  156.3416 O.3     1  UNL1       -0.4635
     27 C         139.2148  136.9904  155.5213 C.3     1  UNL1        0.0473
     28 C         138.9861  138.4728  155.4998 C.3     1  UNL1        0.1678
     29 C         137.9051  139.0524  154.6365 C.3     1  UNL1        0.0473
@<TRIPOS>BOND
     1    27    28    1
     2    28    29    1
     3    28    26    1
     4    26    18    1
     5    18    19   ar
     6    19    20   ar
     7    20    21   ar
     8    21     1    1
     9     1     2   ar
    10     2     3   ar
    11     3     6    1
    12     6     7   ar
    13     7     8   ar
    14     8     9   ar
    15     9    10   ar
    16    10    11   ar
    17    10    12    1
    18    12    13    1
    19    13    14    1
    20    14    15    1
    21    15    16    1
    22     3     4   ar
    23     4     5   ar
    24    21    22   ar
    25    22    23   ar
    26    23    24    1
    27    24    25    3
    28    23    18   ar
    29     5     1   ar
    30    11     6   ar
    31    16     9    1
    32    14    17    1
@<TRIPOS>MOLECULE
*****
 29 32 0 0 0
SMALL
GASTEIGER

@<TRIPOS>ATOM
      1 C         138.9670  143.0025  162.4337 C.ar    1  UNL1        0.2615
      2 N         139.8649  142.2113  163.3380 N.ar    1  UNL1       -0.1869
      3 C         139.3348  142.3294  164.7363 C.ar    1  UNL1        0.2036
      4 N         138.1094  143.1935  164.6961 N.ar    1  UNL1       -0.0556
      5 O         137.8821  143.6095  163.2729 O.2     1  UNL1       -0.3324
      6 C         139.9264  141.6947  165.9599 C.ar    1  UNL1        0.0388
      7 C         139.3237  140.4406  166.5201 C.ar    1  UNL1        0.0028
      8 C         139.9152  139.8058  167.7438 C.ar    1  UNL1       -0.0044
      9 C         141.1096  140.4253  168.4071 C.ar    1  UNL1       -0.0247
     10 C         141.7122  141.6794  167.8469 C.ar    1  UNL1       -0.0246
     11 C         141.1207  142.3141  166.6233 C.ar    1  UNL1       -0.0014
     12 C         142.8941  142.4545  168.3493 C.3     1  UNL1        0.0431
     13 C         143.7652  142.1668  169.5362 C.3     1  UNL1        0.0733
     14 N         143.6695  141.0331  170.5135 N.3     1  UNL1       -0.2969
     15 C         142.6791  139.9069  170.5457 C.3     1  UNL1        0.0733
     16 C         141.5398  139.6364  169.6082 C.3     1  UNL1        0.0431
     17 H         143.5704  141.4865  171.4218 H       1  UNL1        0.1233
     18 C         139.4445  143.4724  157.9838 C.ar    1  UNL1        0.2346
     19 N         138.4141  142.5303  158.5322 N.ar    1  UNL1       -0.2094
     20 C         138.2550  142.3736  160.0154 C.ar    1  UNL1        0.1068
     21 C         139.1262  143.1591  160.9503 C.ar    1  UNL1        0.0761
     22 C         140.1565  144.1013  160.4019 C.ar    1  UNL1        0.0213
     23 C         140.3157  144.2579  158.9187 C.ar    1  UNL1        0.1216
     24 C         141.3460  145.2001  158.3703 C.1     1  UNL1        0.1051
     25 N         142.3764  146.1422  157.8219 N.1     1  UNL1       -0.1907
     26 O         139.6036  143.6291  156.5005 O.3     1  UNL1       -0.4635
     27 C         139.1879  145.9390  155.3862 C.3     1  UNL1        0.0473
     28 C         138.7067  144.5642  155.7446 C.3     1  UNL1        0.1678
     29 C         137.3289  144.1245  155.3473 C.3     1  UNL1        0.0473
@<TRIPOS>BOND
     1    27    28    1
     2    28    29    1
     3    28    26    1
     4    26    18    1
     5    18    19   ar
     6    19    20   ar
     7    20    21   ar
     8    21     1    1
     9     1     2   ar
    10     2     3   ar
    11     3     6    1
    12     6     7   ar
    13     7     8   ar
    14     8     9   ar
    15     9    10   ar
    16    10    11   ar
    17    10    12    1
    18    12    13    1
    19    13    14    1
    20    14    15    1
    21    15    16    1
    22     3     4   ar
    23     4     5   ar
    24    21    22   ar
    25    22    23   ar
    26    23    24    1
    27    24    25    3
    28    23    18   ar
    29     5     1   ar
    30    11     6   ar
    31    16     9    1
    32    14    17    1
@<TRIPOS>MOLECULE
*****
 29 32 0 0 0
SMALL
GASTEIGER

@<TRIPOS>ATOM
      1 C         139.8651  143.9507  162.3276 C.ar    1  UNL1        0.2615
      2 N         140.5704  142.9298  163.1703 N.ar    1  UNL1       -0.1869
      3 C         140.4345  143.3405  164.6066 C.ar    1  UNL1        0.2036
      4 N         139.6452  144.6153  164.6515 N.ar    1  UNL1       -0.0556
      5 O         139.2933  144.9924  163.2429 O.2     1  UNL1       -0.3324
      6 C         140.9904  142.6055  165.7901 C.ar    1  UNL1        0.0388
      7 C         142.0904  141.6033  165.6015 C.ar    1  UNL1        0.0028
      8 C         142.6463  140.8682  166.7850 C.ar    1  UNL1       -0.0044
      9 C         142.1022  141.1354  168.1571 C.ar    1  UNL1       -0.0247
     10 C         141.0022  142.1376  168.3456 C.ar    1  UNL1       -0.0246
     11 C         140.4463  142.8726  167.1622 C.ar    1  UNL1       -0.0014
     12 C         140.3216  142.5513  169.6168 C.3     1  UNL1        0.0431
     13 C         140.5731  142.0648  171.0134 C.3     1  UNL1        0.0733
     14 N         141.5671  141.0447  171.4836 N.3     1  UNL1       -0.2969
     15 C         142.5552  140.2590  170.6735 C.3     1  UNL1        0.0733
     16 C         142.7934  140.2993  169.1931 C.3     1  UNL1        0.0431
     17 H         141.0036  140.3374  171.9554 H       1  UNL1        0.1233
     18 C         139.5242  143.8977  157.8408 C.ar    1  UNL1        0.2346
     19 N         140.2273  145.0316  158.5262 N.ar    1  UNL1       -0.2094
     20 C         140.3409  145.0493  160.0217 C.ar    1  UNL1        0.1068
     21 C         139.7515  143.9330  160.8319 C.ar    1  UNL1        0.0761
     22 C         139.0484  142.7990  160.1465 C.ar    1  UNL1        0.0213
     23 C         138.9348  142.7814  158.6509 C.ar    1  UNL1        0.1216
     24 C         138.2317  141.6474  157.9655 C.1     1  UNL1        0.1051
     25 N         137.5286  140.5134  157.2801 N.1     1  UNL1       -0.1907
     26 O         139.4106  143.8800  156.3452 O.3     1  UNL1       -0.4635
     27 C         138.4323  146.0691  155.3447 C.3     1  UNL1        0.0473
     28 C         138.2889  144.6117  155.6696 C.3     1  UNL1        0.1678
     29 C         137.0239  143.8861  155.3189 C.3     1  UNL1        0.0473
@<TRIPOS>BOND
     1    27    28    1
     2    28    29    1
     3    28    26    1
     4    26    18    1
     5    18    19   ar
     6    19    20   ar
     7    20    21   ar
     8    21     1    1
     9     1     2   ar
    10     2     3   ar
    11     3     6    1
    12     6     7   ar
    13     7     8   ar
    14     8     9   ar
    15     9    10   ar
    16    10    11   ar
    17    10    12    1
    18    12    13    1
    19    13    14    1
    20    14    15    1
    21    15    16    1
    22     3     4   ar
    23     4     5   ar
    24    21    22   ar
    25    22    23   ar
    26    23    24    1
    27    24    25    3
    28    23    18   ar
    29     5     1   ar
    30    11     6   ar
    31    16     9    1
    32    14    17    1
@<TRIPOS>MOLECULE
*****
 29 32 0 0 0
SMALL
GASTEIGER

@<TRIPOS>ATOM
      1 C         141.5009  138.6427  162.1570 C.ar    1  UNL1        0.2615
      2 N         141.3734  139.5148  163.3706 N.ar    1  UNL1       -0.1869
      3 C         140.9161  138.6563  164.5125 C.ar    1  UNL1        0.2036
      4 N         140.7609  137.2535  164.0045 N.ar    1  UNL1       -0.0556
      5 O         141.1224  137.2451  162.5487 O.2     1  UNL1       -0.3324
      6 C         140.6591  139.1193  165.9159 C.ar    1  UNL1        0.0388
      7 C         139.2519  139.3342  166.3888 C.ar    1  UNL1        0.0028
      8 C         138.9948  139.7973  167.7922 C.ar    1  UNL1       -0.0044
      9 C         140.1450  140.0454  168.7227 C.ar    1  UNL1       -0.0247
     10 C         141.5520  139.8305  168.2497 C.ar    1  UNL1       -0.0246
     11 C         141.8092  139.3675  166.8463 C.ar    1  UNL1       -0.0014
     12 C         142.8326  140.0176  169.0082 C.3     1  UNL1        0.0431
     13 C         143.0221  140.4658  170.4272 C.3     1  UNL1        0.0733
     14 N         141.9780  140.8375  171.4379 N.3     1  UNL1       -0.2969
     15 C         140.4865  140.8529  171.2794 C.3     1  UNL1        0.0733
     16 C         139.6707  140.5004  170.0710 C.3     1  UNL1        0.0431
     17 H         142.2157  141.7908  171.7120 H       1  UNL1        0.1233
     18 C         142.7923  139.9834  158.0600 C.ar    1  UNL1        0.2346
     19 N         142.5228  140.9984  159.1310 N.ar    1  UNL1       -0.2094
     20 C         142.0923  140.5515  160.4967 C.ar    1  UNL1        0.1068
     21 C         141.9314  139.0896  160.7913 C.ar    1  UNL1        0.0761
     22 C         142.2009  138.0746  159.7203 C.ar    1  UNL1        0.0213
     23 C         142.6313  138.5214  158.3546 C.ar    1  UNL1        0.1216
     24 C         142.9008  137.5064  157.2836 C.1     1  UNL1        0.1051
     25 N         143.1703  136.4913  156.2126 N.1     1  UNL1       -0.1907
     26 O         143.2227  140.4303  156.6944 O.3     1  UNL1       -0.4635
     27 C         145.4908  141.6429  157.0630 C.3     1  UNL1        0.0473
     28 C         144.6817  140.5805  156.3797 C.3     1  UNL1        0.1678
     29 C         145.3315  139.6685  155.3818 C.3     1  UNL1        0.0473
@<TRIPOS>BOND
     1    27    28    1
     2    28    29    1
     3    28    26    1
     4    26    18    1
     5    18    19   ar
     6    19    20   ar
     7    20    21   ar
     8    21     1    1
     9     1     2   ar
    10     2     3   ar
    11     3     6    1
    12     6     7   ar
    13     7     8   ar
    14     8     9   ar
    15     9    10   ar
    16    10    11   ar
    17    10    12    1
    18    12    13    1
    19    13    14    1
    20    14    15    1
    21    15    16    1
    22     3     4   ar
    23     4     5   ar
    24    21    22   ar
    25    22    23   ar
    26    23    24    1
    27    24    25    3
    28    23    18   ar
    29     5     1   ar
    30    11     6   ar
    31    16     9    1
    32    14    17    1
@<TRIPOS>MOLECULE
*****
 29 32 0 0 0
SMALL
GASTEIGER

@<TRIPOS>ATOM
      1 C         143.5124  138.8072  159.3189 C.ar    1  UNL1        0.2615
      2 N         143.0342  137.4130  159.0403 N.ar    1  UNL1       -0.1869
      3 C         142.9707  137.2335  157.5524 C.ar    1  UNL1        0.2036
      4 N         143.4096  138.5166  156.9115 N.ar    1  UNL1       -0.0556
      5 O         143.7444  139.4893  158.0034 O.2     1  UNL1       -0.3324
      6 C         142.5433  135.9892  156.8321 C.ar    1  UNL1        0.0388
      7 C         141.5541  136.0758  155.7078 C.ar    1  UNL1        0.0028
      8 C         141.1267  134.8315  154.9873 C.ar    1  UNL1       -0.0044
      9 C         141.6885  133.5005  155.3912 C.ar    1  UNL1       -0.0247
     10 C         142.6777  133.4140  156.5154 C.ar    1  UNL1       -0.0246
     11 C         143.1051  134.6582  157.2358 C.ar    1  UNL1       -0.0014
     12 C         143.3551  132.1975  157.0735 C.3     1  UNL1        0.0431
     13 C         143.2106  130.7672  156.6450 C.3     1  UNL1        0.0733
     14 N         142.3531  130.2002  155.5529 N.3     1  UNL1       -0.2969
     15 C         141.4281  130.9233  154.6192 C.3     1  UNL1        0.0733
     16 C         141.1324  132.3921  154.5473 C.3     1  UNL1        0.0431
     17 H         141.7590  129.5173  156.0230 H       1  UNL1        0.1233
     18 C         144.1406  140.6244  163.3875 C.ar    1  UNL1        0.2346
     19 N         144.0405  139.1352  163.2386 N.ar    1  UNL1       -0.2094
     20 C         143.8311  138.5295  161.8825 C.ar    1  UNL1        0.1068
     21 C         143.7218  139.4129  160.6752 C.ar    1  UNL1        0.0761
     22 C         143.8219  140.9022  160.8241 C.ar    1  UNL1        0.0213
     23 C         144.0313  141.5079  162.1802 C.ar    1  UNL1        0.1216
     24 C         144.1314  142.9972  162.3291 C.1     1  UNL1        0.1051
     25 N         144.2315  144.4864  162.4780 N.1     1  UNL1       -0.1907
     26 O         144.3500  141.2302  164.7437 O.3     1  UNL1       -0.4635
     27 C         143.3487  142.4545  166.8050 C.3     1  UNL1        0.0473
     28 C         143.1685  141.5809  165.5989 C.3     1  UNL1        0.1678
     29 C         141.8072  141.0581  165.2482 C.3     1  UNL1        0.0473
@<TRIPOS>BOND
     1    27    28    1
     2    28    29    1
     3    28    26    1
     4    26    18    1
     5    18    19   ar
     6    19    20   ar
     7    20    21   ar
     8    21     1    1
     9     1     2   ar
    10     2     3   ar
    11     3     6    1
    12     6     7   ar
    13     7     8   ar
    14     8     9   ar
    15     9    10   ar
    16    10    11   ar
    17    10    12    1
    18    12    13    1
    19    13    14    1
    20    14    15    1
    21    15    16    1
    22     3     4   ar
    23     4     5   ar
    24    21    22   ar
    25    22    23   ar
    26    23    24    1
    27    24    25    3
    28    23    18   ar
    29     5     1   ar
    30    11     6   ar
    31    16     9    1
    32    14    17    1
@<TRIPOS>MOLECULE
*****
 29 32 0 0 0
SMALL
GASTEIGER

@<TRIPOS>ATOM
      1 C         141.8299  138.8238  161.7961 C.ar    1  UNL1        0.2615
      2 N         141.5953  139.6392  163.0330 N.ar    1  UNL1       -0.1869
      3 C         141.1338  138.7124  164.1185 C.ar    1  UNL1        0.2036
      4 N         141.0832  137.3243  163.5524 N.ar    1  UNL1       -0.0556
      5 O         141.5134  137.3931  162.1170 O.2     1  UNL1       -0.3324
      6 C         140.7843  139.1049  165.5234 C.ar    1  UNL1        0.0388
      7 C         139.3468  139.2557  165.9243 C.ar    1  UNL1        0.0028
      8 C         138.9972  139.6482  167.3293 C.ar    1  UNL1       -0.0044
      9 C         140.0853  139.8900  168.3332 C.ar    1  UNL1       -0.0247
     10 C         141.5227  139.7392  167.9322 C.ar    1  UNL1       -0.0246
     11 C         141.8723  139.3467  166.5274 C.ar    1  UNL1       -0.0014
     12 C         142.7524  139.9315  168.7695 C.3     1  UNL1        0.0431
     13 C         142.8481  140.3221  170.2147 C.3     1  UNL1        0.0733
     14 N         141.7379  140.6168  171.1793 N.3     1  UNL1       -0.2969
     15 C         140.2577  140.5938  170.9371 C.3     1  UNL1        0.0733
     16 C         139.5222  140.2703  169.6705 C.3     1  UNL1        0.0431
     17 H         141.9286  141.5638  171.5066 H       1  UNL1        0.1233
     18 C         143.2363  140.3941  157.8203 C.ar    1  UNL1        0.2346
     19 N         143.2241  138.9170  158.0816 N.ar    1  UNL1       -0.2094
     20 C         142.7553  138.3936  159.4068 C.ar    1  UNL1        0.1068
     21 C         142.2987  139.3472  160.4708 C.ar    1  UNL1        0.0761
     22 C         142.3109  140.8243  160.2096 C.ar    1  UNL1        0.0213
     23 C         142.7797  141.3477  158.8843 C.ar    1  UNL1        0.1216
     24 C         142.7919  142.8247  158.6231 C.1     1  UNL1        0.1051
     25 N         142.8041  144.3017  158.3619 N.1     1  UNL1       -0.1907
     26 O         143.7051  140.9175  156.4951 O.3     1  UNL1       -0.4635
     27 C         146.1768  141.7183  156.4992 C.3     1  UNL1        0.0473
     28 C         145.1329  140.7275  156.0763 C.3     1  UNL1        0.1678
     29 C         145.5168  139.5468  155.2346 C.3     1  UNL1        0.0473
@<TRIPOS>BOND
     1    27    28    1
     2    28    29    1
     3    28    26    1
     4    26    18    1
     5    18    19   ar
     6    19    20   ar
     7    20    21   ar
     8    21     1    1
     9     1     2   ar
    10     2     3   ar
    11     3     6    1
    12     6     7   ar
    13     7     8   ar
    14     8     9   ar
    15     9    10   ar
    16    10    11   ar
    17    10    12    1
    18    12    13    1
    19    13    14    1
    20    14    15    1
    21    15    16    1
    22     3     4   ar
    23     4     5   ar
    24    21    22   ar
    25    22    23   ar
    26    23    24    1
    27    24    25    3
    28    23    18   ar
    29     5     1   ar
    30    11     6   ar
    31    16     9    1
    32    14    17    1
@<TRIPOS>MOLECULE
*****
 29 32 0 0 0
SMALL
GASTEIGER

@<TRIPOS>ATOM
      1 C         138.9868  141.2640  162.6249 C.ar    1  UNL1        0.2615
      2 N         139.6167  142.3891  161.8585 N.ar    1  UNL1       -0.1869
      3 C         139.0597  142.3703  160.4659 C.ar    1  UNL1        0.2036
      4 N         138.0856  141.2336  160.3715 N.ar    1  UNL1       -0.0556
      5 O         138.0405  140.5499  161.7060 O.2     1  UNL1       -0.3324
      6 C         139.4147  143.3213  159.3615 C.ar    1  UNL1        0.0388
      7 C         140.1954  144.5655  159.6653 C.ar    1  UNL1        0.0028
      8 C         140.5504  145.5166  158.5609 C.ar    1  UNL1       -0.0044
      9 C         140.1246  145.2233  157.1528 C.ar    1  UNL1       -0.0247
     10 C         139.3439  143.9791  156.8491 C.ar    1  UNL1       -0.0246
     11 C         138.9889  143.0281  157.9534 C.ar    1  UNL1       -0.0014
     12 C         138.8251  143.5002  155.5256 C.3     1  UNL1        0.0431
     13 C         138.9590  144.1474  154.1790 C.3     1  UNL1        0.0733
     14 N         139.6447  145.4331  153.8233 N.3     1  UNL1       -0.2969
     15 C         140.3658  146.3894  154.7263 C.3     1  UNL1        0.0733
     16 C         140.5794  146.2960  156.2081 C.3     1  UNL1        0.0431
     17 H         138.9179  145.9968  153.3824 H       1  UNL1        0.1233
     18 C         139.7940  140.2153  166.9259 C.ar    1  UNL1        0.2346
     19 N         140.6811  141.1924  166.2130 N.ar    1  UNL1       -0.2094
     20 C         140.4120  141.5420  164.7793 C.ar    1  UNL1        0.1068
     21 C         139.2559  140.9144  164.0586 C.ar    1  UNL1        0.0761
     22 C         138.3688  139.9373  164.7715 C.ar    1  UNL1        0.0213
     23 C         138.6378  139.5877  166.2052 C.ar    1  UNL1        0.1216
     24 C         137.7507  138.6106  166.9181 C.1     1  UNL1        0.1051
     25 N         136.8636  137.6335  167.6311 N.1     1  UNL1       -0.1907
     26 O         140.0631  139.8657  168.3595 O.3     1  UNL1       -0.4635
     27 C         140.0584  142.0548  169.7589 C.3     1  UNL1        0.0473
     28 C         139.4795  140.7040  169.4581 C.3     1  UNL1        0.1678
     29 C         138.3173  140.1915  170.2559 C.3     1  UNL1        0.0473
@<TRIPOS>BOND
     1    27    28    1
     2    28    29    1
     3    28    26    1
     4    26    18    1
     5    18    19   ar
     6    19    20   ar
     7    20    21   ar
     8    21     1    1
     9     1     2   ar
    10     2     3   ar
    11     3     6    1
    12     6     7   ar
    13     7     8   ar
    14     8     9   ar
    15     9    10   ar
    16    10    11   ar
    17    10    12    1
    18    12    13    1
    19    13    14    1
    20    14    15    1
    21    15    16    1
    22     3     4   ar
    23     4     5   ar
    24    21    22   ar
    25    22    23   ar
    26    23    24    1
    27    24    25    3
    28    23    18   ar
    29     5     1   ar
    30    11     6   ar
    31    16     9    1
    32    14    17    1
