@<TRIPOS>MOLECULE
*****
 32 36 0 0 0
SMALL
GASTEIGER

@<TRIPOS>ATOM
      1 C         140.0790  138.1854  161.9270 C.3     1  UNL1        0.0037
      2 C         140.1474  137.7112  163.3485 C.3     1  UNL1        0.0216
      3 C         141.3896  137.9417  164.1571 C.3     1  UNL1        0.0934
      4 N         142.5634  138.6464  163.5443 N.am    1  UNL1       -0.2792
      5 C         143.8056  138.8768  164.3529 C.2     1  UNL1        0.2317
      6 O         144.9795  139.5815  163.7401 O.2     1  UNL1       -0.2744
      7 C         142.4951  139.1206  162.1229 C.3     1  UNL1        0.0934
      8 C         141.2529  138.8901  161.3142 C.3     1  UNL1        0.0216
      9 C         138.8369  137.9550  161.1184 C.3     1  UNL1        0.0048
     10 C         137.6468  138.8497  161.3004 C.3     1  UNL1        0.0263
     11 O         138.7220  145.8429  162.0558 O.2     1  UNL1       -0.2449
     12 C         138.3567  144.5909  162.7968 C.2     1  UNL1        0.3413
     13 O         138.0503  144.4910  164.2618 O.3     1  UNL1       -0.4404
     14 C         137.7379  143.0573  164.5732 C.3     1  UNL1        0.2356
     15 C         137.8512  142.2712  163.3007 C.ar    1  UNL1        0.0272
     16 C         137.6556  140.8147  162.9999 C.ar    1  UNL1       -0.0047
     17 C         137.8424  140.3062  161.6012 C.ar    1  UNL1       -0.0224
     18 C         138.2248  141.2540  160.5033 C.ar    1  UNL1       -0.0041
     19 C         138.4205  142.7104  160.8041 C.ar    1  UNL1        0.0059
     20 C         138.2337  143.2190  162.2028 C.ar    1  UNL1        0.0751
     21 C         143.8739  138.4026  165.7743 C.3     1  UNL1        0.1308
     22 C         143.1723  139.1700  166.8556 C.ar    1  UNL1        0.0683
     23 C         142.4895  140.4661  166.5331 C.ar    1  UNL1        0.0168
     24 C         141.7880  141.2335  167.6142 C.ar    1  UNL1        0.0221
     25 C         141.7692  140.7049  169.0178 C.ar    1  UNL1        0.1053
     26 C         142.4520  139.4088  169.3403 C.ar    1  UNL1        0.1176
     27 N         143.1535  138.6414  168.2591 N.ar    1  UNL1       -0.2461
     28 N         141.0677  141.4723  170.0990 N.ar    1  UNL1       -0.1871
     29 C         139.9706  142.4754  169.8984 C.ar    1  UNL1        0.2259
     30 N         139.5649  142.9943  171.2460 N.ar    1  UNL1       -0.1045
     31 N         140.4113  142.3120  172.2796 N.ar    1  UNL1       -0.0222
     32 N         141.3401  141.3714  171.5706 N.ar    1  UNL1       -0.0384
@<TRIPOS>BOND
     1    11    12    2
     2    12    13    1
     3    13    14    1
     4    14    15    1
     5    15    16   ar
     6    16    17   ar
     7    17    10    1
     8    10     9    1
     9     9     1    1
    10     1     2    1
    11     2     3    1
    12     3     4    1
    13     4     5   am
    14     5     6    2
    15     5    21    1
    16    21    22    1
    17    22    23   ar
    18    23    24   ar
    19    24    25   ar
    20    25    28    1
    21    28    29   ar
    22    29    30   ar
    23    30    31   ar
    24    31    32   ar
    25    25    26   ar
    26    26    27   ar
    27     4     7    1
    28     7     8    1
    29    17    18   ar
    30    18    19   ar
    31    19    20   ar
    32    20    12    1
    33    20    15   ar
    34     8     1    1
    35    27    22   ar
    36    32    28   ar
@<TRIPOS>MOLECULE
*****
 32 36 0 0 0
SMALL
GASTEIGER

@<TRIPOS>ATOM
      1 C         142.2830  139.7055  166.1407 C.3     1  UNL1        0.0037
      2 C         142.0448  138.4882  165.2972 C.3     1  UNL1        0.0216
      3 C         142.6447  138.3974  163.9253 C.3     1  UNL1        0.0934
      4 N         143.4826  139.5237  163.3970 N.am    1  UNL1       -0.2792
      5 C         144.0824  139.4328  162.0251 C.2     1  UNL1        0.2317
      6 O         144.9203  140.5592  161.4968 O.2     1  UNL1       -0.2744
      7 C         143.7207  140.7410  164.2405 C.3     1  UNL1        0.0934
      8 C         143.1210  140.8319  165.6123 C.3     1  UNL1        0.0216
      9 C         141.6832  139.7964  167.5125 C.3     1  UNL1        0.0048
     10 C         140.4971  140.6820  167.7553 C.3     1  UNL1        0.0263
     11 O         137.8311  144.7783  162.5838 O.2     1  UNL1       -0.2449
     12 C         137.8695  143.3755  163.1136 C.2     1  UNL1        0.3413
     13 O         137.1683  142.1895  162.5205 O.3     1  UNL1       -0.4404
     14 C         137.4813  140.9935  163.3699 C.3     1  UNL1        0.2356
     15 C         138.3759  141.4403  164.4880 C.ar    1  UNL1        0.0272
     16 C         139.0030  140.6968  165.6299 C.ar    1  UNL1       -0.0047
     17 C         139.8700  141.4255  166.6134 C.ar    1  UNL1       -0.0224
     18 C         140.1099  142.8977  166.4550 C.ar    1  UNL1       -0.0041
     19 C         139.4828  143.6412  165.3131 C.ar    1  UNL1        0.0059
     20 C         138.6158  142.9125  164.3296 C.ar    1  UNL1        0.0751
     21 C         143.8442  138.2155  161.1816 C.3     1  UNL1        0.1308
     22 C         142.7783  138.2311  160.1263 C.ar    1  UNL1        0.0683
     23 C         141.3790  138.6401  160.4797 C.ar    1  UNL1        0.0168
     24 C         140.3131  138.6557  159.4244 C.ar    1  UNL1        0.0221
     25 C         140.6465  138.2624  158.0158 C.ar    1  UNL1        0.1053
     26 C         142.0457  137.8535  157.6625 C.ar    1  UNL1        0.1176
     27 N         143.1116  137.8378  158.7177 N.ar    1  UNL1       -0.2461
     28 N         139.5806  138.2781  156.9605 N.ar    1  UNL1       -0.1871
     29 C         139.3146  137.1928  155.9598 C.ar    1  UNL1        0.2259
     30 N         138.1632  137.6257  155.1015 N.ar    1  UNL1       -0.1045
     31 N         137.7174  138.9786  155.5718 N.ar    1  UNL1       -0.0222
     32 N         138.5934  139.3817  156.7207 N.ar    1  UNL1       -0.0384
@<TRIPOS>BOND
     1    11    12    2
     2    12    13    1
     3    13    14    1
     4    14    15    1
     5    15    16   ar
     6    16    17   ar
     7    17    10    1
     8    10     9    1
     9     9     1    1
    10     1     2    1
    11     2     3    1
    12     3     4    1
    13     4     5   am
    14     5     6    2
    15     5    21    1
    16    21    22    1
    17    22    23   ar
    18    23    24   ar
    19    24    25   ar
    20    25    28    1
    21    28    29   ar
    22    29    30   ar
    23    30    31   ar
    24    31    32   ar
    25    25    26   ar
    26    26    27   ar
    27     4     7    1
    28     7     8    1
    29    17    18   ar
    30    18    19   ar
    31    19    20   ar
    32    20    12    1
    33    20    15   ar
    34     8     1    1
    35    27    22   ar
    36    32    28   ar
@<TRIPOS>MOLECULE
*****
 32 36 0 0 0
SMALL
GASTEIGER

@<TRIPOS>ATOM
      1 C         139.9310  142.3183  160.7227 C.3     1  UNL1        0.0037
      2 C         138.9633  142.1427  161.8553 C.3     1  UNL1        0.0216
      3 C         138.8893  140.8326  162.5822 C.3     1  UNL1        0.0934
      4 N         139.7829  139.6982  162.1764 N.am    1  UNL1       -0.2792
      5 C         139.7089  138.3883  162.9033 C.2     1  UNL1        0.2317
      6 O         140.6026  137.2538  162.4976 O.2     1  UNL1       -0.2744
      7 C         140.7506  139.8739  161.0438 C.3     1  UNL1        0.0934
      8 C         140.8246  141.1839  160.3170 C.3     1  UNL1        0.0216
      9 C         140.0050  143.6283  159.9958 C.3     1  UNL1        0.0048
     10 C         141.0286  144.6501  160.3938 C.3     1  UNL1        0.0263
     11 O         144.9282  143.8874  166.2966 O.2     1  UNL1       -0.2449
     12 C         144.7776  143.4168  164.8803 C.2     1  UNL1        0.3413
     13 O         145.6439  142.4050  164.1905 O.3     1  UNL1       -0.4404
     14 C         145.1358  142.2383  162.7891 C.3     1  UNL1        0.2356
     15 C         143.9554  143.1469  162.6127 C.ar    1  UNL1        0.0272
     16 C         143.0536  143.4052  161.4423 C.ar    1  UNL1       -0.0047
     17 C         141.9304  144.3918  161.5643 C.ar    1  UNL1       -0.0224
     18 C         141.7090  145.1201  162.8568 C.ar    1  UNL1       -0.0041
     19 C         142.6108  144.8619  164.0272 C.ar    1  UNL1        0.0059
     20 C         143.7340  143.8753  163.9052 C.ar    1  UNL1        0.0751
     21 C         138.7413  138.2126  164.0359 C.3     1  UNL1        0.1308
     22 C         139.0444  138.8054  165.3801 C.ar    1  UNL1        0.0683
     23 C         138.0095  138.7714  166.4654 C.ar    1  UNL1        0.0168
     24 C         138.3126  139.3641  167.8096 C.ar    1  UNL1        0.0221
     25 C         139.6506  139.9908  168.0684 C.ar    1  UNL1        0.1053
     26 C         140.6854  140.0248  166.9831 C.ar    1  UNL1        0.1176
     27 N         140.3824  139.4321  165.6390 N.ar    1  UNL1       -0.2461
     28 N         139.9537  140.5836  169.4126 N.ar    1  UNL1       -0.1871
     29 C         139.9823  142.0459  169.7452 C.ar    1  UNL1        0.2259
     30 N         140.3277  142.1841  171.1983 N.ar    1  UNL1       -0.1045
     31 N         140.5127  140.8071  171.7638 N.ar    1  UNL1       -0.0222
     32 N         140.2815  139.8180  170.6602 N.ar    1  UNL1       -0.0384
@<TRIPOS>BOND
     1    11    12    2
     2    12    13    1
     3    13    14    1
     4    14    15    1
     5    15    16   ar
     6    16    17   ar
     7    17    10    1
     8    10     9    1
     9     9     1    1
    10     1     2    1
    11     2     3    1
    12     3     4    1
    13     4     5   am
    14     5     6    2
    15     5    21    1
    16    21    22    1
    17    22    23   ar
    18    23    24   ar
    19    24    25   ar
    20    25    28    1
    21    28    29   ar
    22    29    30   ar
    23    30    31   ar
    24    31    32   ar
    25    25    26   ar
    26    26    27   ar
    27     4     7    1
    28     7     8    1
    29    17    18   ar
    30    18    19   ar
    31    19    20   ar
    32    20    12    1
    33    20    15   ar
    34     8     1    1
    35    27    22   ar
    36    32    28   ar
@<TRIPOS>MOLECULE
*****
 32 36 0 0 0
SMALL
GASTEIGER

@<TRIPOS>ATOM
      1 C         141.5260  140.5285  167.0858 C.3     1  UNL1        0.0037
      2 C         140.2936  140.0429  166.3819 C.3     1  UNL1        0.0216
      3 C         139.4375  141.0082  165.6167 C.3     1  UNL1        0.0934
      4 N         139.8138  142.4588  165.5553 N.am    1  UNL1       -0.2792
      5 C         138.9577  143.4240  164.7901 C.2     1  UNL1        0.2317
      6 O         139.3341  144.8748  164.7286 O.2     1  UNL1       -0.2744
      7 C         141.0462  142.9444  166.2591 C.3     1  UNL1        0.0934
      8 C         141.9023  141.9793  167.0244 C.3     1  UNL1        0.0216
      9 C         142.3821  139.5634  167.8510 C.3     1  UNL1        0.0048
     10 C         143.2460  138.5816  167.1164 C.3     1  UNL1        0.0263
     11 O         144.1975  139.1116  160.0846 O.2     1  UNL1       -0.2449
     12 C         143.2705  138.5876  161.1411 C.2     1  UNL1        0.3413
     13 O         141.9826  137.8574  160.9006 O.3     1  UNL1       -0.4404
     14 C         141.3848  137.5204  162.2344 C.3     1  UNL1        0.2356
     15 C         142.3034  138.0423  163.2993 C.ar    1  UNL1        0.0272
     16 C         142.2291  138.0022  164.7969 C.ar    1  UNL1       -0.0047
     17 C         143.3203  138.6217  165.6187 C.ar    1  UNL1       -0.0224
     18 C         144.4857  139.2814  164.9430 C.ar    1  UNL1       -0.0041
     19 C         144.5600  139.3215  163.4454 C.ar    1  UNL1        0.0059
     20 C         143.4688  138.7020  162.6235 C.ar    1  UNL1        0.0751
     21 C         137.7253  142.9384  164.0862 C.3     1  UNL1        0.1308
     22 C         137.8361  142.3050  162.7310 C.ar    1  UNL1        0.0683
     23 C         137.5153  140.8503  162.5545 C.ar    1  UNL1        0.0168
     24 C         137.6260  140.2169  161.1994 C.ar    1  UNL1        0.0221
     25 C         138.0574  141.0382  160.0207 C.ar    1  UNL1        0.1053
     26 C         138.3782  142.4928  160.1971 C.ar    1  UNL1        0.1176
     27 N         138.2675  143.1262  161.5523 N.ar    1  UNL1       -0.2461
     28 N         138.1682  140.4047  158.6654 N.ar    1  UNL1       -0.1871
     29 C         139.2672  139.4935  158.2052 C.ar    1  UNL1        0.2259
     30 N         138.9775  139.0970  156.7879 N.ar    1  UNL1       -0.1045
     31 N         137.6994  139.7632  156.3721 N.ar    1  UNL1       -0.0222
     32 N         137.1992  140.5714  157.5325 N.ar    1  UNL1       -0.0384
@<TRIPOS>BOND
     1    11    12    2
     2    12    13    1
     3    13    14    1
     4    14    15    1
     5    15    16   ar
     6    16    17   ar
     7    17    10    1
     8    10     9    1
     9     9     1    1
    10     1     2    1
    11     2     3    1
    12     3     4    1
    13     4     5   am
    14     5     6    2
    15     5    21    1
    16    21    22    1
    17    22    23   ar
    18    23    24   ar
    19    24    25   ar
    20    25    28    1
    21    28    29   ar
    22    29    30   ar
    23    30    31   ar
    24    31    32   ar
    25    25    26   ar
    26    26    27   ar
    27     4     7    1
    28     7     8    1
    29    17    18   ar
    30    18    19   ar
    31    19    20   ar
    32    20    12    1
    33    20    15   ar
    34     8     1    1
    35    27    22   ar
    36    32    28   ar
@<TRIPOS>MOLECULE
*****
 32 36 0 0 0
SMALL
GASTEIGER

@<TRIPOS>ATOM
      1 C         140.7567  140.4845  167.3714 C.3     1  UNL1        0.0037
      2 C         141.6667  139.5743  166.6010 C.3     1  UNL1        0.0216
      3 C         142.8066  140.1464  165.8114 C.3     1  UNL1        0.0934
      4 N         143.0365  141.6285  165.7922 N.am    1  UNL1       -0.2792
      5 C         144.1763  142.2005  165.0026 C.2     1  UNL1        0.2317
      6 O         144.4062  143.6827  164.9833 O.2     1  UNL1       -0.2744
      7 C         142.1264  142.5386  166.5626 C.3     1  UNL1        0.0934
      8 C         140.9866  141.9667  167.3522 C.3     1  UNL1        0.0216
      9 C         139.6168  139.9125  168.1610 C.3     1  UNL1        0.0048
     10 C         138.4536  139.2848  167.4518 C.3     1  UNL1        0.0263
     11 O         138.7513  138.0364  160.4529 O.2     1  UNL1       -0.2449
     12 C         138.3971  139.0701  161.4806 C.2     1  UNL1        0.3413
     13 O         137.8861  140.4524  161.2011 O.3     1  UNL1       -0.4404
     14 C         137.6650  141.1394  162.5160 C.3     1  UNL1        0.2356
     15 C         138.0393  140.1818  163.6082 C.ar    1  UNL1        0.0272
     16 C         138.0266  140.3091  165.1027 C.ar    1  UNL1       -0.0047
     17 C         138.4663  139.1575  165.9573 C.ar    1  UNL1       -0.0224
     18 C         138.9188  137.8786  165.3173 C.ar    1  UNL1       -0.0041
     19 C         138.9316  137.7512  163.8228 C.ar    1  UNL1        0.0059
     20 C         138.4918  138.9028  162.9683 C.ar    1  UNL1        0.0751
     21 C         145.0864  141.2903  164.2322 C.3     1  UNL1        0.1308
     22 C         144.6562  140.7519  162.8999 C.ar    1  UNL1        0.0683
     23 C         144.4217  139.2806  162.7259 C.ar    1  UNL1        0.0168
     24 C         143.9915  138.7421  161.3936 C.ar    1  UNL1        0.0221
     25 C         143.7958  139.6749  160.2354 C.ar    1  UNL1        0.1053
     26 C         144.0303  141.1462  160.4094 C.ar    1  UNL1        0.1176
     27 N         144.4605  141.6847  161.7417 N.ar    1  UNL1       -0.2461
     28 N         143.3657  139.1364  158.9031 N.ar    1  UNL1       -0.1871
     29 C         142.2462  138.1671  158.6636 C.ar    1  UNL1        0.2259
     30 N         142.1681  137.9044  157.1888 N.ar    1  UNL1       -0.1045
     31 N         143.2393  138.7113  156.5168 N.ar    1  UNL1       -0.0222
     32 N         143.9794  139.4727  157.5763 N.ar    1  UNL1       -0.0384
@<TRIPOS>BOND
     1    11    12    2
     2    12    13    1
     3    13    14    1
     4    14    15    1
     5    15    16   ar
     6    16    17   ar
     7    17    10    1
     8    10     9    1
     9     9     1    1
    10     1     2    1
    11     2     3    1
    12     3     4    1
    13     4     5   am
    14     5     6    2
    15     5    21    1
    16    21    22    1
    17    22    23   ar
    18    23    24   ar
    19    24    25   ar
    20    25    28    1
    21    28    29   ar
    22    29    30   ar
    23    30    31   ar
    24    31    32   ar
    25    25    26   ar
    26    26    27   ar
    27     4     7    1
    28     7     8    1
    29    17    18   ar
    30    18    19   ar
    31    19    20   ar
    32    20    12    1
    33    20    15   ar
    34     8     1    1
    35    27    22   ar
    36    32    28   ar
@<TRIPOS>MOLECULE
*****
 32 36 0 0 0
SMALL
GASTEIGER

@<TRIPOS>ATOM
      1 C         142.1399  142.2148  166.8454 C.3     1  UNL1        0.0037
      2 C         140.9077  142.8048  166.2261 C.3     1  UNL1        0.0216
      3 C         141.0153  143.6184  164.9704 C.3     1  UNL1        0.0934
      4 N         142.3552  143.8420  164.3342 N.am    1  UNL1       -0.2792
      5 C         142.4628  144.6555  163.0786 C.2     1  UNL1        0.2317
      6 O         143.8027  144.8792  162.4423 O.2     1  UNL1       -0.2744
      7 C         143.5874  143.2520  164.9535 C.3     1  UNL1        0.0934
      8 C         143.4798  142.4385  166.2091 C.3     1  UNL1        0.0216
      9 C         142.0323  141.4013  168.1010 C.3     1  UNL1        0.0048
     10 C         141.5653  139.9774  168.0343 C.3     1  UNL1        0.0263
     11 O         138.0354  137.6700  162.3030 O.2     1  UNL1       -0.2449
     12 C         139.4003  137.7855  162.9144 C.2     1  UNL1        0.3413
     13 O         140.6850  137.3172  162.2980 O.3     1  UNL1       -0.4404
     14 C         141.7987  137.6319  163.2523 C.3     1  UNL1        0.2356
     15 C         141.2022  138.2946  164.4585 C.ar    1  UNL1        0.0272
     16 C         141.8174  138.8239  165.7200 C.ar    1  UNL1       -0.0047
     17 C         140.9502  139.4481  166.7727 C.ar    1  UNL1       -0.0224
     18 C         139.4678  139.5430  166.5639 C.ar    1  UNL1       -0.0041
     19 C         138.8527  139.0138  165.3024 C.ar    1  UNL1        0.0059
     20 C         139.7199  138.3896  164.2497 C.ar    1  UNL1        0.0751
     21 C         141.2306  145.2455  162.4593 C.3     1  UNL1        0.1308
     22 C         140.4685  144.4732  161.4234 C.ar    1  UNL1        0.0683
     23 C         140.8284  144.6063  159.9734 C.ar    1  UNL1        0.0168
     24 C         140.0664  143.8341  158.9376 C.ar    1  UNL1        0.0221
     25 C         138.9444  142.9288  159.3518 C.ar    1  UNL1        0.1053
     26 C         138.5844  142.7958  160.8019 C.ar    1  UNL1        0.1176
     27 N         139.3465  143.5680  161.8377 N.ar    1  UNL1       -0.2461
     28 N         138.1823  142.1566  158.3160 N.ar    1  UNL1       -0.1871
     29 C         138.0638  140.6632  158.2397 C.ar    1  UNL1        0.2259
     30 N         137.2132  140.3258  157.0512 N.ar    1  UNL1       -0.1045
     31 N         136.8059  141.6107  156.3929 N.ar    1  UNL1       -0.0222
     32 N         137.4048  142.7421  157.1746 N.ar    1  UNL1       -0.0384
@<TRIPOS>BOND
     1    11    12    2
     2    12    13    1
     3    13    14    1
     4    14    15    1
     5    15    16   ar
     6    16    17   ar
     7    17    10    1
     8    10     9    1
     9     9     1    1
    10     1     2    1
    11     2     3    1
    12     3     4    1
    13     4     5   am
    14     5     6    2
    15     5    21    1
    16    21    22    1
    17    22    23   ar
    18    23    24   ar
    19    24    25   ar
    20    25    28    1
    21    28    29   ar
    22    29    30   ar
    23    30    31   ar
    24    31    32   ar
    25    25    26   ar
    26    26    27   ar
    27     4     7    1
    28     7     8    1
    29    17    18   ar
    30    18    19   ar
    31    19    20   ar
    32    20    12    1
    33    20    15   ar
    34     8     1    1
    35    27    22   ar
    36    32    28   ar
@<TRIPOS>MOLECULE
*****
 32 36 0 0 0
SMALL
GASTEIGER

@<TRIPOS>ATOM
      1 C         138.6431  139.2115  164.5218 C.3     1  UNL1        0.0037
      2 C         138.5539  138.4135  163.2549 C.3     1  UNL1        0.0216
      3 C         138.3889  139.1127  161.9381 C.3     1  UNL1        0.0934
      4 N         138.3130  140.6099  161.8883 N.am    1  UNL1       -0.2792
      5 C         138.1480  141.3091  160.5715 C.2     1  UNL1        0.2317
      6 O         138.0721  142.8064  160.5217 O.2     1  UNL1       -0.2744
      7 C         138.4022  141.4080  163.1552 C.3     1  UNL1        0.0934
      8 C         138.5672  140.7088  164.4720 C.3     1  UNL1        0.0216
      9 C         138.8081  138.5123  165.8386 C.3     1  UNL1        0.0048
     10 C         138.5715  139.2579  167.1185 C.3     1  UNL1        0.0263
     11 O         144.2894  142.6527  169.6506 O.2     1  UNL1       -0.2449
     12 C         142.8690  142.2838  169.9610 C.2     1  UNL1        0.3413
     13 O         142.1192  142.6375  171.2110 O.3     1  UNL1       -0.4404
     14 C         140.7359  142.0686  171.0983 C.3     1  UNL1        0.2356
     15 C         140.6307  141.3633  169.7787 C.ar    1  UNL1        0.0272
     16 C         139.5049  140.6172  169.1263 C.ar    1  UNL1       -0.0047
     17 C         139.6974  140.0041  167.7709 C.ar    1  UNL1       -0.0224
     18 C         141.0158  140.1371  167.0680 C.ar    1  UNL1       -0.0041
     19 C         142.1417  140.8832  167.7204 C.ar    1  UNL1        0.0059
     20 C         141.9491  141.4963  169.0757 C.ar    1  UNL1        0.0751
     21 C         138.0588  140.5110  159.3046 C.3     1  UNL1        0.1308
     22 C         139.3098  140.0235  158.6356 C.ar    1  UNL1        0.0683
     23 C         140.4691  140.9556  158.4427 C.ar    1  UNL1        0.0168
     24 C         141.7201  140.4682  157.7738 C.ar    1  UNL1        0.0221
     25 C         141.8117  139.0487  157.2979 C.ar    1  UNL1        0.1053
     26 C         140.6524  138.1166  157.4908 C.ar    1  UNL1        0.1176
     27 N         139.4014  138.6041  158.1596 N.ar    1  UNL1       -0.2461
     28 N         143.0627  138.5612  156.6289 N.ar    1  UNL1       -0.1871
     29 C         143.3260  137.1589  156.1661 C.ar    1  UNL1        0.2259
     30 N         144.6961  137.1215  155.5565 N.ar    1  UNL1       -0.1045
     31 N         145.2795  138.5007  155.6426 N.ar    1  UNL1       -0.0222
     32 N         144.2701  139.3905  156.3054 N.ar    1  UNL1       -0.0384
@<TRIPOS>BOND
     1    11    12    2
     2    12    13    1
     3    13    14    1
     4    14    15    1
     5    15    16   ar
     6    16    17   ar
     7    17    10    1
     8    10     9    1
     9     9     1    1
    10     1     2    1
    11     2     3    1
    12     3     4    1
    13     4     5   am
    14     5     6    2
    15     5    21    1
    16    21    22    1
    17    22    23   ar
    18    23    24   ar
    19    24    25   ar
    20    25    28    1
    21    28    29   ar
    22    29    30   ar
    23    30    31   ar
    24    31    32   ar
    25    25    26   ar
    26    26    27   ar
    27     4     7    1
    28     7     8    1
    29    17    18   ar
    30    18    19   ar
    31    19    20   ar
    32    20    12    1
    33    20    15   ar
    34     8     1    1
    35    27    22   ar
    36    32    28   ar
@<TRIPOS>MOLECULE
*****
 32 36 0 0 0
SMALL
GASTEIGER

@<TRIPOS>ATOM
      1 C         138.6447  140.1563  159.8103 C.3     1  UNL1        0.0037
      2 C         137.7796  140.2245  161.0338 C.3     1  UNL1        0.0216
      3 C         138.1189  139.3987  162.2392 C.3     1  UNL1        0.0934
      4 N         139.3233  138.5048  162.2211 N.am    1  UNL1       -0.2792
      5 C         139.6626  137.6791  163.4266 C.2     1  UNL1        0.2317
      6 O         140.8670  136.7851  163.4085 O.2     1  UNL1       -0.2744
      7 C         140.1884  138.4366  160.9976 C.3     1  UNL1        0.0934
      8 C         139.8491  139.2623  159.7922 C.3     1  UNL1        0.0216
      9 C         138.3054  140.9820  158.6049 C.3     1  UNL1        0.0048
     10 C         138.7469  142.4135  158.5279 C.3     1  UNL1        0.0263
     11 O         144.1649  144.6263  162.5751 O.2     1  UNL1       -0.2449
     12 C         142.6686  144.5633  162.4906 C.2     1  UNL1        0.3413
     13 O         141.7048  145.0928  163.5108 O.3     1  UNL1       -0.4404
     14 C         140.3140  144.8164  163.0217 C.3     1  UNL1        0.2356
     15 C         140.4182  144.1161  161.6993 C.ar    1  UNL1        0.0272
     16 C         139.3760  143.6007  160.7516 C.ar    1  UNL1       -0.0047
     17 C         139.7891  142.9289  159.4757 C.ar    1  UNL1       -0.0224
     18 C         141.2444  142.7725  159.1474 C.ar    1  UNL1       -0.0041
     19 C         142.2866  143.2879  160.0951 C.ar    1  UNL1        0.0059
     20 C         141.8735  143.9597  161.3710 C.ar    1  UNL1        0.0751
     21 C         138.7975  137.7473  164.6501 C.3     1  UNL1        0.1308
     22 C         139.2216  138.5806  165.8230 C.ar    1  UNL1        0.0683
     23 C         138.2583  138.8466  166.9415 C.ar    1  UNL1        0.0168
     24 C         138.6823  139.6799  168.1144 C.ar    1  UNL1        0.0221
     25 C         140.0698  140.2472  168.1688 C.ar    1  UNL1        0.1053
     26 C         141.0332  139.9812  167.0502 C.ar    1  UNL1        0.1176
     27 N         140.6091  139.1479  165.8773 N.ar    1  UNL1       -0.2461
     28 N         140.4940  141.0805  169.3417 N.ar    1  UNL1       -0.1871
     29 C         141.4853  142.2059  169.3113 C.ar    1  UNL1        0.2259
     30 N         141.6053  142.7556  170.7018 N.ar    1  UNL1       -0.1045
     31 N         140.6880  141.9701  171.5916 N.ar    1  UNL1       -0.0222
     32 N         140.0013  140.9348  170.7510 N.ar    1  UNL1       -0.0384
@<TRIPOS>BOND
     1    11    12    2
     2    12    13    1
     3    13    14    1
     4    14    15    1
     5    15    16   ar
     6    16    17   ar
     7    17    10    1
     8    10     9    1
     9     9     1    1
    10     1     2    1
    11     2     3    1
    12     3     4    1
    13     4     5   am
    14     5     6    2
    15     5    21    1
    16    21    22    1
    17    22    23   ar
    18    23    24   ar
    19    24    25   ar
    20    25    28    1
    21    28    29   ar
    22    29    30   ar
    23    30    31   ar
    24    31    32   ar
    25    25    26   ar
    26    26    27   ar
    27     4     7    1
    28     7     8    1
    29    17    18   ar
    30    18    19   ar
    31    19    20   ar
    32    20    12    1
    33    20    15   ar
    34     8     1    1
    35    27    22   ar
    36    32    28   ar
@<TRIPOS>MOLECULE
*****
 32 36 0 0 0
SMALL
GASTEIGER

@<TRIPOS>ATOM
      1 C         141.6613  140.4560  167.0174 C.3     1  UNL1        0.0037
      2 C         142.1669  141.7910  166.5565 C.3     1  UNL1        0.0216
      3 C         141.2455  142.7370  165.8450 C.3     1  UNL1        0.0934
      4 N         139.8187  142.3480  165.5943 N.am    1  UNL1       -0.2792
      5 C         138.8974  143.2940  164.8827 C.2     1  UNL1        0.2317
      6 O         137.4705  142.9051  164.6320 O.2     1  UNL1       -0.2744
      7 C         139.3132  141.0131  166.0551 C.3     1  UNL1        0.0934
      8 C         140.2344  140.0671  166.7666 C.3     1  UNL1        0.0216
      9 C         142.5826  139.5100  167.7289 C.3     1  UNL1        0.0048
     10 C         143.3914  138.5192  166.9454 C.3     1  UNL1        0.0263
     11 O         144.1506  139.2061  159.9038 O.2     1  UNL1       -0.2449
     12 C         143.2463  138.6699  160.9737 C.2     1  UNL1        0.3413
     13 O         141.9413  137.9640  160.7529 O.3     1  UNL1       -0.4404
     14 C         141.3768  137.6032  162.0950 C.3     1  UNL1        0.2356
     15 C         142.3328  138.0861  163.1451 C.ar    1  UNL1        0.0272
     16 C         142.3005  138.0107  164.6429 C.ar    1  UNL1       -0.0047
     17 C         143.4237  138.5945  165.4475 C.ar    1  UNL1       -0.0224
     18 C         144.5792  139.2538  164.7545 C.ar    1  UNL1       -0.0041
     19 C         144.6115  139.3292  163.2568 C.ar    1  UNL1        0.0059
     20 C         143.4883  138.7453  162.4521 C.ar    1  UNL1        0.0751
     21 C         139.4030  144.6290  164.4219 C.3     1  UNL1        0.1308
     22 C         139.8238  144.8197  162.9948 C.ar    1  UNL1        0.0683
     23 C         139.4446  146.0725  162.2621 C.ar    1  UNL1        0.0168
     24 C         139.8654  146.2633  160.8351 C.ar    1  UNL1        0.0221
     25 C         140.6653  145.2012  160.1407 C.ar    1  UNL1        0.1053
     26 C         141.0444  143.9484  160.8733 C.ar    1  UNL1        0.1176
     27 N         140.6236  143.7577  162.3004 N.ar    1  UNL1       -0.2461
     28 N         141.0861  145.3920  158.7135 N.ar    1  UNL1       -0.1871
     29 C         140.2179  145.8933  157.5978 C.ar    1  UNL1        0.2259
     30 N         141.0442  145.9260  156.3464 N.ar    1  UNL1       -0.1045
     31 N         142.4231  145.4449  156.6887 N.ar    1  UNL1       -0.0222
     32 N         142.4490  145.1148  158.1516 N.ar    1  UNL1       -0.0384
@<TRIPOS>BOND
     1    11    12    2
     2    12    13    1
     3    13    14    1
     4    14    15    1
     5    15    16   ar
     6    16    17   ar
     7    17    10    1
     8    10     9    1
     9     9     1    1
    10     1     2    1
    11     2     3    1
    12     3     4    1
    13     4     5   am
    14     5     6    2
    15     5    21    1
    16    21    22    1
    17    22    23   ar
    18    23    24   ar
    19    24    25   ar
    20    25    28    1
    21    28    29   ar
    22    29    30   ar
    23    30    31   ar
    24    31    32   ar
    25    25    26   ar
    26    26    27   ar
    27     4     7    1
    28     7     8    1
    29    17    18   ar
    30    18    19   ar
    31    19    20   ar
    32    20    12    1
    33    20    15   ar
    34     8     1    1
    35    27    22   ar
    36    32    28   ar
