@<TRIPOS>MOLECULE
*****
 27 30 0 0 0
SMALL
GASTEIGER

@<TRIPOS>ATOM
      1 O         143.6481  142.5811  166.8706 O.2     1  UNL1       -0.2900
      2 P         142.4922  142.1152  166.0360 P.3     1  UNL1        0.2302
      3 C         141.8813  141.4679  167.2434 C.ar    1  UNL1        0.0500
      4 C         142.5114  140.2432  167.8374 C.ar    1  UNL1        0.0047
      5 C         141.9005  139.5960  169.0448 C.ar    1  UNL1        0.0002
      6 C         140.6594  140.1735  169.6582 C.ar    1  UNL1        0.0000
      7 C         140.0293  141.3982  169.0642 C.ar    1  UNL1        0.0002
      8 C         140.6402  142.0455  167.8568 C.ar    1  UNL1        0.0047
      9 C         143.1031  142.7625  164.8286 C.ar    1  UNL1        0.0500
     10 C         143.0255  144.2504  164.6552 C.ar    1  UNL1        0.0047
     11 C         143.6365  144.8977  163.4478 C.ar    1  UNL1        0.0002
     12 C         144.3251  144.0570  162.4138 C.ar    1  UNL1        0.0000
     13 C         144.4027  142.5691  162.5872 C.ar    1  UNL1        0.0002
     14 C         143.7917  141.9218  163.7945 C.ar    1  UNL1        0.0047
     15 N         141.3363  141.6493  165.2013 N.pl3   1  UNL1       -0.2374
     16 C         141.1108  140.1823  164.9846 C.ar    1  UNL1        0.0767
     17 C         139.7915  139.5653  165.3432 C.ar    1  UNL1        0.0183
     18 C         139.5660  138.0982  165.1266 C.ar    1  UNL1        0.0220
     19 C         140.6598  137.2482  164.5513 C.ar    1  UNL1        0.0990
     20 N         141.9792  137.8652  164.1926 N.ar    1  UNL1       -0.2410
     21 C         142.2047  139.3323  164.4093 C.ar    1  UNL1        0.1140
     22 C         140.4058  142.6505  164.5832 C.ar    1  UNL1        0.0767
     23 C         139.7243  143.6724  165.4442 C.ar    1  UNL1        0.0183
     24 C         138.7939  144.6735  164.8262 C.ar    1  UNL1        0.0220
     25 C         138.5448  144.6528  163.3472 C.ar    1  UNL1        0.0990
     26 N         139.2263  143.6309  162.4861 N.ar    1  UNL1       -0.2410
     27 C         140.1568  142.6297  163.1042 C.ar    1  UNL1        0.1140
@<TRIPOS>BOND
     1     1     2    2
     2     2     3    1
     3     3     4   ar
     4     4     5   ar
     5     5     6   ar
     6     6     7   ar
     7     7     8   ar
     8     2     9    1
     9     9    10   ar
    10    10    11   ar
    11    11    12   ar
    12    12    13   ar
    13    13    14   ar
    14     2    15    1
    15    15    16    1
    16    16    17   ar
    17    17    18   ar
    18    18    19   ar
    19    19    20   ar
    20    20    21   ar
    21    15    22    1
    22    22    23   ar
    23    23    24   ar
    24    24    25   ar
    25    25    26   ar
    26    26    27   ar
    27     8     3   ar
    28    14     9   ar
    29    21    16   ar
    30    27    22   ar
@<TRIPOS>MOLECULE
*****
 27 30 0 0 0
SMALL
GASTEIGER

@<TRIPOS>ATOM
      1 O         143.6470  142.5830  166.8701 O.2     1  UNL1       -0.2900
      2 P         142.4938  142.1125  166.0343 P.3     1  UNL1        0.2302
      3 C         143.1045  142.7604  164.8270 C.ar    1  UNL1        0.0500
      4 C         143.7949  141.9205  163.7937 C.ar    1  UNL1        0.0047
      5 C         144.4056  142.5684  162.5865 C.ar    1  UNL1        0.0002
      6 C         144.3259  144.0562  162.4127 C.ar    1  UNL1        0.0000
      7 C         143.6355  144.8960  163.4461 C.ar    1  UNL1        0.0002
      8 C         143.0248  144.2482  164.6532 C.ar    1  UNL1        0.0047
      9 C         141.8831  141.4647  167.2414 C.ar    1  UNL1        0.0500
     10 C         142.5145  140.2408  167.8359 C.ar    1  UNL1        0.0047
     11 C         141.9037  139.5929  169.0432 C.ar    1  UNL1        0.0002
     12 C         140.6617  140.1691  169.6559 C.ar    1  UNL1        0.0000
     13 C         140.0304  141.3930  169.0614 C.ar    1  UNL1        0.0002
     14 C         140.6410  142.0408  167.8542 C.ar    1  UNL1        0.0047
     15 N         141.3406  141.6420  165.1984 N.pl3   1  UNL1       -0.2374
     16 C         141.1146  140.1738  164.9907 C.ar    1  UNL1        0.0767
     17 C         139.7934  139.5603  165.3485 C.ar    1  UNL1        0.0183
     18 C         139.5674  138.0920  165.1407 C.ar    1  UNL1        0.0220
     19 C         140.6626  137.2373  164.5753 C.ar    1  UNL1        0.0990
     20 N         141.9839  137.8507  164.2175 N.ar    1  UNL1       -0.2410
     21 C         142.2099  139.3190  164.4252 C.ar    1  UNL1        0.1140
     22 C         140.4132  142.6398  164.5702 C.ar    1  UNL1        0.0767
     23 C         139.7332  143.6711  165.4212 C.ar    1  UNL1        0.0183
     24 C         138.8060  144.6689  164.7931 C.ar    1  UNL1        0.0220
     25 C         138.5586  144.6354  163.3139 C.ar    1  UNL1        0.0990
     26 N         139.2386  143.6042  162.4630 N.ar    1  UNL1       -0.2410
     27 C         140.1660  142.6064  163.0912 C.ar    1  UNL1        0.1140
@<TRIPOS>BOND
     1     1     2    2
     2     2     3    1
     3     3     4   ar
     4     4     5   ar
     5     5     6   ar
     6     6     7   ar
     7     7     8   ar
     8     2     9    1
     9     9    10   ar
    10    10    11   ar
    11    11    12   ar
    12    12    13   ar
    13    13    14   ar
    14     2    15    1
    15    15    16    1
    16    16    17   ar
    17    17    18   ar
    18    18    19   ar
    19    19    20   ar
    20    20    21   ar
    21    15    22    1
    22    22    23   ar
    23    23    24   ar
    24    24    25   ar
    25    25    26   ar
    26    26    27   ar
    27     8     3   ar
    28    14     9   ar
    29    21    16   ar
    30    27    22   ar
@<TRIPOS>MOLECULE
*****
 27 30 0 0 0
SMALL
GASTEIGER

@<TRIPOS>ATOM
      1 O         143.6547  142.5699  166.8756 O.2     1  UNL1       -0.2900
      2 P         142.5001  142.1046  166.0388 P.3     1  UNL1        0.2302
      3 C         143.1103  142.7575  164.8340 C.ar    1  UNL1        0.0500
      4 C         143.0298  144.2459  164.6660 C.ar    1  UNL1        0.0047
      5 C         143.6400  144.8987  163.4613 C.ar    1  UNL1        0.0002
      6 C         144.3307  144.0632  162.4245 C.ar    1  UNL1        0.0000
      7 C         144.4112  142.5748  162.5925 C.ar    1  UNL1        0.0002
      8 C         143.8010  141.9220  163.7972 C.ar    1  UNL1        0.0047
      9 C         141.8900  141.4518  167.2435 C.ar    1  UNL1        0.0500
     10 C         140.6469  142.0239  167.8578 C.ar    1  UNL1        0.0047
     11 C         140.0367  141.3709  169.0626 C.ar    1  UNL1        0.0002
     12 C         140.6697  140.1460  169.6531 C.ar    1  UNL1        0.0000
     13 C         141.9129  139.5739  169.0388 C.ar    1  UNL1        0.0002
     14 C         142.5230  140.2267  167.8341 C.ar    1  UNL1        0.0047
     15 N         141.3455  141.6393  165.2019 N.pl3   1  UNL1       -0.2374
     16 C         140.4103  142.6406  164.5912 C.ar    1  UNL1        0.0767
     17 C         139.7192  143.6489  165.4605 C.ar    1  UNL1        0.0183
     18 C         138.7840  144.6501  164.8498 C.ar    1  UNL1        0.0220
     19 C         138.5399  144.6430  163.3699 C.ar    1  UNL1        0.0990
     20 N         139.2310  143.6347  162.5005 N.ar    1  UNL1       -0.2410
     21 C         140.1662  142.6334  163.1112 C.ar    1  UNL1        0.1140
     22 C         141.1261  140.1728  164.9757 C.ar    1  UNL1        0.0767
     23 C         139.8087  139.5483  165.3287 C.ar    1  UNL1        0.0183
     24 C         139.5893  138.0818  165.1025 C.ar    1  UNL1        0.0220
     25 C         140.6872  137.2397  164.5233 C.ar    1  UNL1        0.0990
     26 N         142.0046  137.8641  164.1703 N.ar    1  UNL1       -0.2410
     27 C         142.2240  139.3307  164.3965 C.ar    1  UNL1        0.1140
@<TRIPOS>BOND
     1     1     2    2
     2     2     3    1
     3     3     4   ar
     4     4     5   ar
     5     5     6   ar
     6     6     7   ar
     7     7     8   ar
     8     2     9    1
     9     9    10   ar
    10    10    11   ar
    11    11    12   ar
    12    12    13   ar
    13    13    14   ar
    14     2    15    1
    15    15    16    1
    16    16    17   ar
    17    17    18   ar
    18    18    19   ar
    19    19    20   ar
    20    20    21   ar
    21    15    22    1
    22    22    23   ar
    23    23    24   ar
    24    24    25   ar
    25    25    26   ar
    26    26    27   ar
    27     8     3   ar
    28    14     9   ar
    29    21    16   ar
    30    27    22   ar
@<TRIPOS>MOLECULE
*****
 27 30 0 0 0
SMALL
GASTEIGER

@<TRIPOS>ATOM
      1 O         143.6865  142.5305  166.8981 O.2     1  UNL1       -0.2900
      2 P         142.5258  142.0721  166.0659 P.3     1  UNL1        0.2302
      3 C         141.9171  141.4220  167.2730 C.ar    1  UNL1        0.0500
      4 C         140.6921  142.0129  167.9054 C.ar    1  UNL1        0.0047
      5 C         140.0834  141.3629  169.1125 C.ar    1  UNL1        0.0002
      6 C         140.6999  140.1220  169.6871 C.ar    1  UNL1        0.0000
      7 C         141.9250  139.5311  169.0546 C.ar    1  UNL1        0.0002
      8 C         142.5336  140.1811  167.8476 C.ar    1  UNL1        0.0047
      9 C         143.1345  142.7221  164.8589 C.ar    1  UNL1        0.0500
     10 C         143.8271  141.8845  163.8250 C.ar    1  UNL1        0.0047
     11 C         144.4358  142.5346  162.6179 C.ar    1  UNL1        0.0002
     12 C         144.3519  144.0222  162.4448 C.ar    1  UNL1        0.0000
     13 C         143.6593  144.8598  163.4786 C.ar    1  UNL1        0.0002
     14 C         143.0506  144.2097  164.6856 C.ar    1  UNL1        0.0047
     15 N         141.3651  141.6136  165.2337 N.pl3   1  UNL1       -0.2374
     16 C         140.4353  142.6205  164.6240 C.ar    1  UNL1        0.0767
     17 C         139.7276  143.6133  165.4977 C.ar    1  UNL1        0.0183
     18 C         138.7978  144.6201  164.8880 C.ar    1  UNL1        0.0220
     19 C         138.5757  144.6342  163.4046 C.ar    1  UNL1        0.0990
     20 N         139.2834  143.6413  162.5308 N.ar    1  UNL1       -0.2410
     21 C         140.2132  142.6345  163.1405 C.ar    1  UNL1        0.1140
     22 C         141.1342  140.1483  165.0111 C.ar    1  UNL1        0.0767
     23 C         139.8106  139.5358  165.3618 C.ar    1  UNL1        0.0183
     24 C         139.5797  138.0706  165.1393 C.ar    1  UNL1        0.0220
     25 C         140.6723  137.2176  164.5660 C.ar    1  UNL1        0.0990
     26 N         141.9959  137.8300  164.2152 N.ar    1  UNL1       -0.2410
     27 C         142.2269  139.2954  164.4378 C.ar    1  UNL1        0.1140
@<TRIPOS>BOND
     1     1     2    2
     2     2     3    1
     3     3     4   ar
     4     4     5   ar
     5     5     6   ar
     6     6     7   ar
     7     7     8   ar
     8     2     9    1
     9     9    10   ar
    10    10    11   ar
    11    11    12   ar
    12    12    13   ar
    13    13    14   ar
    14     2    15    1
    15    15    16    1
    16    16    17   ar
    17    17    18   ar
    18    18    19   ar
    19    19    20   ar
    20    20    21   ar
    21    15    22    1
    22    22    23   ar
    23    23    24   ar
    24    24    25   ar
    25    25    26   ar
    26    26    27   ar
    27     8     3   ar
    28    14     9   ar
    29    21    16   ar
    30    27    22   ar
@<TRIPOS>MOLECULE
*****
 27 30 0 0 0
SMALL
GASTEIGER

@<TRIPOS>ATOM
      1 O         142.2796  139.3697  166.6924 O.2     1  UNL1       -0.2900
      2 P         141.6224  139.8539  165.4339 P.3     1  UNL1        0.2302
      3 C         140.3163  139.2774  165.8942 C.ar    1  UNL1        0.0500
      4 C         139.5981  139.8856  167.0622 C.ar    1  UNL1        0.0047
      5 C         138.2920  139.3091  167.5224 C.ar    1  UNL1        0.0002
      6 C         137.7042  138.1243  166.8146 C.ar    1  UNL1        0.0000
      7 C         138.4224  137.5162  165.6466 C.ar    1  UNL1        0.0002
      8 C         139.7285  138.0927  165.1864 C.ar    1  UNL1        0.0047
      9 C         142.9285  140.4303  164.9737 C.ar    1  UNL1        0.0500
     10 C         144.0156  139.5233  164.4782 C.ar    1  UNL1        0.0047
     11 C         145.3217  140.0999  164.0179 C.ar    1  UNL1        0.0002
     12 C         145.5407  141.5833  164.0533 C.ar    1  UNL1        0.0000
     13 C         144.4536  142.4903  164.5489 C.ar    1  UNL1        0.0002
     14 C         143.1476  141.9139  165.0091 C.ar    1  UNL1        0.0047
     15 N         140.9653  140.3381  164.1755 N.pl3   1  UNL1       -0.2374
     16 C         139.9052  141.3971  164.2426 C.ar    1  UNL1        0.0767
     17 C         140.1629  142.6699  164.9933 C.ar    1  UNL1        0.0183
     18 C         139.1028  143.7289  165.0604 C.ar    1  UNL1        0.0220
     19 C         137.7849  143.5152  164.3768 C.ar    1  UNL1        0.0990
     20 N         137.5270  142.2424  163.6260 N.ar    1  UNL1       -0.2410
     21 C         138.5872  141.1833  163.5589 C.ar    1  UNL1        0.1140
     22 C         141.3684  139.7632  162.8499 C.ar    1  UNL1        0.0767
     23 C         141.8550  140.6679  161.7569 C.ar    1  UNL1        0.0183
     24 C         142.2580  140.0931  160.4313 C.ar    1  UNL1        0.0220
     25 C         142.1744  138.6136  160.1987 C.ar    1  UNL1        0.0990
     26 N         141.6877  137.7089  161.2917 N.ar    1  UNL1       -0.2410
     27 C         141.2847  138.2837  162.6173 C.ar    1  UNL1        0.1140
@<TRIPOS>BOND
     1     1     2    2
     2     2     3    1
     3     3     4   ar
     4     4     5   ar
     5     5     6   ar
     6     6     7   ar
     7     7     8   ar
     8     2     9    1
     9     9    10   ar
    10    10    11   ar
    11    11    12   ar
    12    12    13   ar
    13    13    14   ar
    14     2    15    1
    15    15    16    1
    16    16    17   ar
    17    17    18   ar
    18    18    19   ar
    19    19    20   ar
    20    20    21   ar
    21    15    22    1
    22    22    23   ar
    23    23    24   ar
    24    24    25   ar
    25    25    26   ar
    26    26    27   ar
    27     8     3   ar
    28    14     9   ar
    29    21    16   ar
    30    27    22   ar
@<TRIPOS>MOLECULE
*****
 27 30 0 0 0
SMALL
GASTEIGER

@<TRIPOS>ATOM
      1 O         142.2876  139.3456  166.6587 O.2     1  UNL1       -0.2900
      2 P         141.6281  139.8347  165.4034 P.3     1  UNL1        0.2302
      3 C         142.9300  140.4257  164.9497 C.ar    1  UNL1        0.0500
      4 C         143.1389  141.9101  165.0031 C.ar    1  UNL1        0.0047
      5 C         144.4408  142.5010  164.5494 C.ar    1  UNL1        0.0002
      6 C         145.5338  141.6076  164.0423 C.ar    1  UNL1        0.0000
      7 C         145.3249  140.1232  163.9889 C.ar    1  UNL1        0.0002
      8 C         144.0230  139.5323  164.4426 C.ar    1  UNL1        0.0047
      9 C         140.3262  139.2438  165.8571 C.ar    1  UNL1        0.0500
     10 C         139.5839  139.8580  167.0067 C.ar    1  UNL1        0.0047
     11 C         138.2820  139.2670  167.4604 C.ar    1  UNL1        0.0002
     12 C         137.7225  138.0617  166.7645 C.ar    1  UNL1        0.0000
     13 C         138.4648  137.4475  165.6149 C.ar    1  UNL1        0.0002
     14 C         139.7667  138.0384  165.1612 C.ar    1  UNL1        0.0047
     15 N         140.9686  140.3238  164.1481 N.pl3   1  UNL1       -0.2374
     16 C         141.3769  139.7622  162.8185 C.ar    1  UNL1        0.0767
     17 C         141.8517  140.6794  161.7308 C.ar    1  UNL1        0.0183
     18 C         142.2601  140.1178  160.4012 C.ar    1  UNL1        0.0220
     19 C         142.1936  138.6389  160.1593 C.ar    1  UNL1        0.0990
     20 N         141.7188  137.7216  161.2471 N.ar    1  UNL1       -0.2410
     21 C         141.3104  138.2832  162.5767 C.ar    1  UNL1        0.1140
     22 C         139.9006  141.3746  164.2223 C.ar    1  UNL1        0.0767
     23 C         140.1569  142.6533  164.9635 C.ar    1  UNL1        0.0183
     24 C         139.0890  143.7040  165.0378 C.ar    1  UNL1        0.0220
     25 C         137.7648  143.4762  164.3709 C.ar    1  UNL1        0.0990
     26 N         137.5086  142.1975  163.6297 N.ar    1  UNL1       -0.2410
     27 C         138.5765  141.1467  163.5555 C.ar    1  UNL1        0.1140
@<TRIPOS>BOND
     1     1     2    2
     2     2     3    1
     3     3     4   ar
     4     4     5   ar
     5     5     6   ar
     6     6     7   ar
     7     7     8   ar
     8     2     9    1
     9     9    10   ar
    10    10    11   ar
    11    11    12   ar
    12    12    13   ar
    13    13    14   ar
    14     2    15    1
    15    15    16    1
    16    16    17   ar
    17    17    18   ar
    18    18    19   ar
    19    19    20   ar
    20    20    21   ar
    21    15    22    1
    22    22    23   ar
    23    23    24   ar
    24    24    25   ar
    25    25    26   ar
    26    26    27   ar
    27     8     3   ar
    28    14     9   ar
    29    21    16   ar
    30    27    22   ar
@<TRIPOS>MOLECULE
*****
 27 30 0 0 0
SMALL
GASTEIGER

@<TRIPOS>ATOM
      1 O         142.4096  139.5494  166.6625 O.2     1  UNL1       -0.2900
      2 P         141.7293  140.1049  165.4466 P.3     1  UNL1        0.2302
      3 C         140.4240  139.5341  165.9161 C.ar    1  UNL1        0.0500
      4 C         139.7785  138.4137  165.1558 C.ar    1  UNL1        0.0047
      5 C         138.4733  137.8429  165.6254 C.ar    1  UNL1        0.0002
      6 C         137.8135  138.3925  166.8553 C.ar    1  UNL1        0.0000
      7 C         138.4590  139.5128  167.6156 C.ar    1  UNL1        0.0002
      8 C         139.7642  140.0836  167.1460 C.ar    1  UNL1        0.0047
      9 C         143.0345  140.6757  164.9771 C.ar    1  UNL1        0.0500
     10 C         143.2890  142.1503  165.0811 C.ar    1  UNL1        0.0047
     11 C         144.5943  142.7211  164.6116 C.ar    1  UNL1        0.0002
     12 C         145.6451  141.8173  164.0380 C.ar    1  UNL1        0.0000
     13 C         145.3906  140.3427  163.9340 C.ar    1  UNL1        0.0002
     14 C         144.0854  139.7719  164.4035 C.ar    1  UNL1        0.0047
     15 N         141.0490  140.6604  164.2306 N.pl3   1  UNL1       -0.2374
     16 C         141.4089  140.1452  162.8686 C.ar    1  UNL1        0.0767
     17 C         141.8976  141.0926  161.8134 C.ar    1  UNL1        0.0183
     18 C         142.2575  140.5774  160.4514 C.ar    1  UNL1        0.0220
     19 C         142.1287  139.1147  160.1447 C.ar    1  UNL1        0.0990
     20 N         141.6400  138.1673  161.1999 N.ar    1  UNL1       -0.2410
     21 C         141.2801  138.6825  162.5619 C.ar    1  UNL1        0.1140
     22 C         140.0087  141.7312  164.3766 C.ar    1  UNL1        0.0767
     23 C         140.2906  142.9412  165.2172 C.ar    1  UNL1        0.0183
     24 C         139.2504  144.0119  165.3632 C.ar    1  UNL1        0.0220
     25 C         137.9282  143.8728  164.6687 C.ar    1  UNL1        0.0990
     26 N         137.6462  142.6628  163.8281 N.ar    1  UNL1       -0.2410
     27 C         138.6865  141.5920  163.6821 C.ar    1  UNL1        0.1140
@<TRIPOS>BOND
     1     1     2    2
     2     2     3    1
     3     3     4   ar
     4     4     5   ar
     5     5     6   ar
     6     6     7   ar
     7     7     8   ar
     8     2     9    1
     9     9    10   ar
    10    10    11   ar
    11    11    12   ar
    12    12    13   ar
    13    13    14   ar
    14     2    15    1
    15    15    16    1
    16    16    17   ar
    17    17    18   ar
    18    18    19   ar
    19    19    20   ar
    20    20    21   ar
    21    15    22    1
    22    22    23   ar
    23    23    24   ar
    24    24    25   ar
    25    25    26   ar
    26    26    27   ar
    27     8     3   ar
    28    14     9   ar
    29    21    16   ar
    30    27    22   ar
@<TRIPOS>MOLECULE
*****
 27 30 0 0 0
SMALL
GASTEIGER

@<TRIPOS>ATOM
      1 O         142.2356  139.3678  166.5902 O.2     1  UNL1       -0.2900
      2 P         141.5916  139.8113  165.3102 P.3     1  UNL1        0.2302
      3 C         142.8805  140.4483  164.8823 C.ar    1  UNL1        0.0500
      4 C         143.0362  141.9390  164.9412 C.ar    1  UNL1        0.0047
      5 C         144.3251  142.5759  164.5134 C.ar    1  UNL1        0.0002
      6 C         145.4583  141.7221  164.0267 C.ar    1  UNL1        0.0000
      7 C         145.3026  140.2314  163.9679 C.ar    1  UNL1        0.0002
      8 C         144.0137  139.5945  164.3957 C.ar    1  UNL1        0.0047
      9 C         140.3027  139.1743  165.7380 C.ar    1  UNL1        0.0500
     10 C         139.5064  139.7727  166.8595 C.ar    1  UNL1        0.0047
     11 C         138.2175  139.1357  167.2873 C.ar    1  UNL1        0.0002
     12 C         137.7250  137.9003  166.5936 C.ar    1  UNL1        0.0000
     13 C         138.5213  137.3019  165.4722 C.ar    1  UNL1        0.0002
     14 C         139.8102  137.9388  165.0443 C.ar    1  UNL1        0.0047
     15 N         140.9475  140.2547  164.0301 N.pl3   1  UNL1       -0.2374
     16 C         139.8404  141.2664  164.0588 C.ar    1  UNL1        0.0767
     17 C         140.0353  142.5715  164.7721 C.ar    1  UNL1        0.0183
     18 C         138.9282  143.5832  164.8007 C.ar    1  UNL1        0.0220
     19 C         137.6263  143.2899  164.1160 C.ar    1  UNL1        0.0990
     20 N         137.4314  141.9848  163.4026 N.ar    1  UNL1       -0.2410
     21 C         138.5384  140.9731  163.3740 C.ar    1  UNL1        0.1140
     22 C         141.4105  139.6864  162.7214 C.ar    1  UNL1        0.0767
     23 C         141.8720  140.6028  161.6271 C.ar    1  UNL1        0.0183
     24 C         142.3350  140.0346  160.3184 C.ar    1  UNL1        0.0220
     25 C         142.3365  138.5499  160.1039 C.ar    1  UNL1        0.0990
     26 N         141.8751  137.6336  161.1982 N.ar    1  UNL1       -0.2410
     27 C         141.4121  138.2019  162.5069 C.ar    1  UNL1        0.1140
@<TRIPOS>BOND
     1     1     2    2
     2     2     3    1
     3     3     4   ar
     4     4     5   ar
     5     5     6   ar
     6     6     7   ar
     7     7     8   ar
     8     2     9    1
     9     9    10   ar
    10    10    11   ar
    11    11    12   ar
    12    12    13   ar
    13    13    14   ar
    14     2    15    1
    15    15    16    1
    16    16    17   ar
    17    17    18   ar
    18    18    19   ar
    19    19    20   ar
    20    20    21   ar
    21    15    22    1
    22    22    23   ar
    23    23    24   ar
    24    24    25   ar
    25    25    26   ar
    26    26    27   ar
    27     8     3   ar
    28    14     9   ar
    29    21    16   ar
    30    27    22   ar
@<TRIPOS>MOLECULE
*****
 27 30 0 0 0
SMALL
GASTEIGER

@<TRIPOS>ATOM
      1 O         142.9445  140.5220  162.8192 O.2     1  UNL1       -0.2900
      2 P         141.9629  141.0089  163.8436 P.3     1  UNL1        0.2302
      3 C         141.3898  139.6269  163.9512 C.ar    1  UNL1        0.0500
      4 C         140.0364  139.3294  163.3771 C.ar    1  UNL1        0.0047
      5 C         139.4633  137.9474  163.4848 C.ar    1  UNL1        0.0002
      6 C         140.2437  136.8629  164.1667 C.ar    1  UNL1        0.0000
      7 C         141.5971  137.1604  164.7408 C.ar    1  UNL1        0.0002
      8 C         142.1701  138.5424  164.6331 C.ar    1  UNL1        0.0047
      9 C         142.5361  142.3909  163.7358 C.ar    1  UNL1        0.0500
     10 C         142.1983  143.2531  162.5557 C.ar    1  UNL1        0.0047
     11 C         142.7715  144.6351  162.4481 C.ar    1  UNL1        0.0002
     12 C         143.6824  145.1549  163.5204 C.ar    1  UNL1        0.0000
     13 C         144.0202  144.2927  164.7005 C.ar    1  UNL1        0.0002
     14 C         143.4470  142.9108  164.8082 C.ar    1  UNL1        0.0047
     15 N         140.9814  141.4959  164.8679 N.pl3   1  UNL1       -0.2374
     16 C         141.0573  140.9916  166.2786 C.ar    1  UNL1        0.0767
     17 C         139.8285  140.4539  166.9500 C.ar    1  UNL1        0.0183
     18 C         139.9043  139.9496  168.3606 C.ar    1  UNL1        0.0220
     19 C         141.2090  139.9832  169.0999 C.ar    1  UNL1        0.0990
     20 N         142.4379  140.5209  168.4285 N.ar    1  UNL1       -0.2410
     21 C         142.3621  141.0252  167.0179 C.ar    1  UNL1        0.1140
     22 C         139.9238  142.4871  164.4816 C.ar    1  UNL1        0.0767
     23 C         139.7958  143.7786  165.2338 C.ar    1  UNL1        0.0183
     24 C         138.7383  144.7698  164.8475 C.ar    1  UNL1        0.0220
     25 C         137.8088  144.4695  163.7091 C.ar    1  UNL1        0.0990
     26 N         137.9368  143.1781  162.9569 N.ar    1  UNL1       -0.2410
     27 C         138.9944  142.1868  163.3432 C.ar    1  UNL1        0.1140
@<TRIPOS>BOND
     1     1     2    2
     2     2     3    1
     3     3     4   ar
     4     4     5   ar
     5     5     6   ar
     6     6     7   ar
     7     7     8   ar
     8     2     9    1
     9     9    10   ar
    10    10    11   ar
    11    11    12   ar
    12    12    13   ar
    13    13    14   ar
    14     2    15    1
    15    15    16    1
    16    16    17   ar
    17    17    18   ar
    18    18    19   ar
    19    19    20   ar
    20    20    21   ar
    21    15    22    1
    22    22    23   ar
    23    23    24   ar
    24    24    25   ar
    25    25    26   ar
    26    26    27   ar
    27     8     3   ar
    28    14     9   ar
    29    21    16   ar
    30    27    22   ar
