@<TRIPOS>MOLECULE
*****
 28 31 0 0 0
SMALL
GASTEIGER

@<TRIPOS>ATOM
      1 C         140.8105  139.4040  165.1548 C.ar    1  UNL1        0.0191
      2 C         141.2348  137.9841  164.9227 C.ar    1  UNL1        0.0023
      3 C         141.2396  137.4205  163.5326 C.ar    1  UNL1        0.0367
      4 C         140.8201  138.2768  162.3747 C.ar    1  UNL1        0.1385
      5 C         140.3958  139.6967  162.6068 C.ar    1  UNL1        0.0367
      6 C         140.3910  140.2602  163.9969 C.ar    1  UNL1        0.0023
      7 C         138.4649  138.9201  166.9614 C.3     1  UNL1        0.0300
      8 C         139.6329  139.7257  167.4482 C.3     1  UNL1        0.1779
      9 C         140.8057  139.9676  166.5449 C.3     1  UNL1        0.2102
     10 O         141.9737  140.7731  167.0316 O.3     1  UNL1       -0.4717
     11 C         141.9689  141.3368  168.4218 C.ar    1  UNL1        0.1559
     12 C         143.1368  142.1423  168.9085 C.ar    1  UNL1        0.0382
     13 C         143.1320  142.7059  170.2985 C.ar    1  UNL1        0.0032
     14 C         141.9592  142.4640  171.2019 C.ar    1  UNL1        0.0015
     15 C         140.7912  141.6585  170.7151 C.ar    1  UNL1        0.0214
     16 C         140.7961  141.0949  169.3251 C.ar    1  UNL1        0.1395
     17 S         139.6280  140.2893  168.8383 S.O2    1  UNL1        0.0137
     18 O         139.1613  140.6121  170.2268 O.2     1  UNL1       -0.1685
     19 O         138.2979  139.5959  168.8337 O.2     1  UNL1       -0.1685
     20 O         140.8249  137.7132  160.9846 O.3     1  UNL1       -0.4754
     21 C         141.8905  138.1242  160.0123 C.3     1  UNL1        0.2068
     22 C         143.3155  138.2399  160.4660 C.3     1  UNL1        0.0646
     23 C         143.8989  139.5880  160.7699 C.3     1  UNL1        0.0759
     24 N         144.0119  140.0532  162.1914 N.3     1  UNL1       -0.2726
     25 C         143.7441  141.4429  162.6883 C.3     1  UNL1        0.0721
     26 C         143.9793  141.4589  164.1696 C.3     1  UNL1        0.0188
     27 C         144.3925  140.0790  164.5883 C.3     1  UNL1        0.0188
     28 C         144.4127  139.2103  163.3656 C.3     1  UNL1        0.0721
@<TRIPOS>BOND
     1     8     7    1
     2     8     9    1
     3     9     1    1
     4     1     2   ar
     5     2     3   ar
     6     3     4   ar
     7     4    20    1
     8    20    21    1
     9    21    22    1
    10    22    23    1
    11    23    24    1
    12    24    25    1
    13    25    26    1
    14    26    27    1
    15    27    28    1
    16     4     5   ar
    17     5     6   ar
    18     9    10    1
    19    10    11    1
    20    11    12   ar
    21    12    13   ar
    22    13    14   ar
    23    14    15   ar
    24    15    16   ar
    25    16    17    1
    26    17    18    2
    27    17    19    2
    28    17     8    1
    29     6     1   ar
    30    16    11   ar
    31    28    24    1
@<TRIPOS>MOLECULE
*****
 28 31 0 0 0
SMALL
GASTEIGER

@<TRIPOS>ATOM
      1 C         139.7290  141.8185  164.2159 C.ar    1  UNL1        0.0191
      2 C         138.5849  142.7664  164.0098 C.ar    1  UNL1        0.0023
      3 C         138.1320  143.1044  162.6204 C.ar    1  UNL1        0.0367
      4 C         138.8232  142.4946  161.4371 C.ar    1  UNL1        0.1385
      5 C         139.9673  141.5467  161.6431 C.ar    1  UNL1        0.0367
      6 C         140.4202  141.2086  163.0326 C.ar    1  UNL1        0.0023
      7 C         138.1759  139.8493  165.8623 C.3     1  UNL1        0.0300
      8 C         139.4054  140.4958  166.4286 C.3     1  UNL1        0.1779
      9 C         140.1819  141.4804  165.6054 C.3     1  UNL1        0.2102
     10 O         141.4112  142.1268  166.1717 O.3     1  UNL1       -0.4717
     11 C         141.8642  141.7887  167.5612 C.ar    1  UNL1        0.1559
     12 C         143.0935  142.4352  168.1274 C.ar    1  UNL1        0.0382
     13 C         143.5464  142.0971  169.5168 C.ar    1  UNL1        0.0032
     14 C         142.7699  141.1125  170.3400 C.ar    1  UNL1        0.0015
     15 C         141.5405  140.4660  169.7738 C.ar    1  UNL1        0.0214
     16 C         141.0877  140.8041  168.3843 C.ar    1  UNL1        0.1395
     17 S         139.8582  140.1576  167.8180 S.O2    1  UNL1        0.0137
     18 O         139.8877  139.5178  169.1744 O.2     1  UNL1       -0.1685
     19 O         138.6391  139.2889  167.7228 O.2     1  UNL1       -0.1685
     20 O         138.3703  142.8327  160.0476 O.3     1  UNL1       -0.4754
     21 C         139.3417  143.4118  159.0622 C.3     1  UNL1        0.2068
     22 C         140.0997  144.6608  159.4018 C.3     1  UNL1        0.0646
     23 C         141.5047  144.5682  159.9190 C.3     1  UNL1        0.0759
     24 N         141.7651  144.6174  161.3954 N.3     1  UNL1       -0.2726
     25 C         142.8740  143.9126  162.1191 C.3     1  UNL1        0.0721
     26 C         142.7567  144.2397  163.5782 C.3     1  UNL1        0.0188
     27 C         141.5752  145.1466  163.7564 C.3     1  UNL1        0.0188
     28 C         140.9624  145.3801  162.4073 C.3     1  UNL1        0.0721
@<TRIPOS>BOND
     1     8     7    1
     2     8     9    1
     3     9     1    1
     4     1     2   ar
     5     2     3   ar
     6     3     4   ar
     7     4    20    1
     8    20    21    1
     9    21    22    1
    10    22    23    1
    11    23    24    1
    12    24    25    1
    13    25    26    1
    14    26    27    1
    15    27    28    1
    16     4     5   ar
    17     5     6   ar
    18     9    10    1
    19    10    11    1
    20    11    12   ar
    21    12    13   ar
    22    13    14   ar
    23    14    15   ar
    24    15    16   ar
    25    16    17    1
    26    17    18    2
    27    17    19    2
    28    17     8    1
    29     6     1   ar
    30    16    11   ar
    31    28    24    1
@<TRIPOS>MOLECULE
*****
 28 31 0 0 0
SMALL
GASTEIGER

@<TRIPOS>ATOM
      1 C         139.8363  139.4756  165.0951 C.ar    1  UNL1        0.0191
      2 C         138.9909  140.2907  164.1619 C.ar    1  UNL1        0.0023
      3 C         138.6918  139.7818  162.7830 C.ar    1  UNL1        0.0367
      4 C         139.2382  138.4579  162.3372 C.ar    1  UNL1        0.1385
      5 C         140.0837  137.6428  163.2704 C.ar    1  UNL1        0.0367
      6 C         140.3827  138.1517  164.6494 C.ar    1  UNL1        0.0023
      7 C         137.9395  138.9057  167.3484 C.3     1  UNL1        0.0300
      8 C         139.1870  139.6995  167.6008 C.3     1  UNL1        0.1779
      9 C         140.1354  139.9845  166.4742 C.3     1  UNL1        0.2102
     10 O         141.3829  140.7783  166.7265 O.3     1  UNL1       -0.4717
     11 C         141.6820  141.2871  168.1056 C.ar    1  UNL1        0.1559
     12 C         142.9294  142.0809  168.3579 C.ar    1  UNL1        0.0382
     13 C         143.2284  142.5897  169.7369 C.ar    1  UNL1        0.0032
     14 C         142.2800  142.3048  170.8635 C.ar    1  UNL1        0.0015
     15 C         141.0326  141.5110  170.6112 C.ar    1  UNL1        0.0214
     16 C         140.7335  141.0022  169.2322 C.ar    1  UNL1        0.1395
     17 S         139.4860  140.2083  168.9798 S.O2    1  UNL1        0.0137
     18 O         139.3334  140.4735  170.4483 O.2     1  UNL1       -0.1685
     19 O         138.1855  139.5066  169.2374 O.2     1  UNL1       -0.1685
     20 O         138.9391  137.9490  160.9582 O.3     1  UNL1       -0.4754
     21 C         139.6682  138.5145  159.7756 C.3     1  UNL1        0.2068
     22 C         141.1661  138.5923  159.7851 C.3     1  UNL1        0.0646
     23 C         141.8500  139.8222  160.3045 C.3     1  UNL1        0.0759
     24 N         142.5498  139.7877  161.6308 N.3     1  UNL1       -0.2726
     25 C         143.4858  138.7163  162.1062 C.3     1  UNL1        0.0721
     26 C         143.9509  139.0849  163.4838 C.3     1  UNL1        0.0188
     27 C         143.3024  140.3842  163.8598 C.3     1  UNL1        0.0188
     28 C         142.4364  140.8185  162.7146 C.3     1  UNL1        0.0721
@<TRIPOS>BOND
     1     8     7    1
     2     8     9    1
     3     9     1    1
     4     1     2   ar
     5     2     3   ar
     6     3     4   ar
     7     4    20    1
     8    20    21    1
     9    21    22    1
    10    22    23    1
    11    23    24    1
    12    24    25    1
    13    25    26    1
    14    26    27    1
    15    27    28    1
    16     4     5   ar
    17     5     6   ar
    18     9    10    1
    19    10    11    1
    20    11    12   ar
    21    12    13   ar
    22    13    14   ar
    23    14    15   ar
    24    15    16   ar
    25    16    17    1
    26    17    18    2
    27    17    19    2
    28    17     8    1
    29     6     1   ar
    30    16    11   ar
    31    28    24    1
@<TRIPOS>MOLECULE
*****
 28 31 0 0 0
SMALL
GASTEIGER

@<TRIPOS>ATOM
      1 C         141.9383  142.0244  164.6063 C.ar    1  UNL1        0.0191
      2 C         140.9469  141.4850  163.6184 C.ar    1  UNL1        0.0023
      3 C         140.9752  141.9556  162.1944 C.ar    1  UNL1        0.0367
      4 C         141.9949  142.9656  161.7584 C.ar    1  UNL1        0.1385
      5 C         142.9863  143.5050  162.7464 C.ar    1  UNL1        0.0367
      6 C         142.9580  143.0344  164.1703 C.ar    1  UNL1        0.0023
      7 C         143.3576  139.4969  165.3792 C.3     1  UNL1        0.0300
      8 C         142.6197  140.2901  166.4168 C.3     1  UNL1        0.1779
      9 C         141.9101  141.5538  166.0304 C.3     1  UNL1        0.2102
     10 O         141.1722  142.3469  167.0679 O.3     1  UNL1       -0.4717
     11 C         141.1439  141.8763  168.4919 C.ar    1  UNL1        0.1559
     12 C         140.4060  142.6694  169.5294 C.ar    1  UNL1        0.0382
     13 C         140.3778  142.1988  170.9533 C.ar    1  UNL1        0.0032
     14 C         141.0874  140.9351  171.3398 C.ar    1  UNL1        0.0015
     15 C         141.8253  140.1420  170.3023 C.ar    1  UNL1        0.0214
     16 C         141.8536  140.6126  168.8784 C.ar    1  UNL1        0.1395
     17 S         142.5915  139.8194  167.8408 S.O2    1  UNL1        0.0137
     18 O         142.8508  138.9710  169.0503 O.2     1  UNL1       -0.1685
     19 O         143.4195  138.7316  167.2233 O.2     1  UNL1       -0.1685
     20 O         142.0232  143.4363  160.3344 O.3     1  UNL1       -0.4754
     21 C         141.5013  144.7981  159.9841 C.3     1  UNL1        0.2068
     22 C         140.1218  145.2050  160.4100 C.3     1  UNL1        0.0646
     23 C         139.9156  145.8916  161.7277 C.3     1  UNL1        0.0759
     24 N         139.3094  145.1424  162.8770 N.3     1  UNL1       -0.2726
     25 C         139.8493  145.0855  164.2754 C.3     1  UNL1        0.0721
     26 C         138.9304  144.2264  165.0925 C.3     1  UNL1        0.0188
     27 C         137.8226  143.7523  164.1991 C.3     1  UNL1        0.0188
     28 C         138.0569  144.3184  162.8299 C.3     1  UNL1        0.0721
@<TRIPOS>BOND
     1     8     7    1
     2     8     9    1
     3     9     1    1
     4     1     2   ar
     5     2     3   ar
     6     3     4   ar
     7     4    20    1
     8    20    21    1
     9    21    22    1
    10    22    23    1
    11    23    24    1
    12    24    25    1
    13    25    26    1
    14    26    27    1
    15    27    28    1
    16     4     5   ar
    17     5     6   ar
    18     9    10    1
    19    10    11    1
    20    11    12   ar
    21    12    13   ar
    22    13    14   ar
    23    14    15   ar
    24    15    16   ar
    25    16    17    1
    26    17    18    2
    27    17    19    2
    28    17     8    1
    29     6     1   ar
    30    16    11   ar
    31    28    24    1
@<TRIPOS>MOLECULE
*****
 28 31 0 0 0
SMALL
GASTEIGER

@<TRIPOS>ATOM
      1 C         141.0805  140.8244  164.4119 C.ar    1  UNL1        0.0191
      2 C         140.5606  141.9595  163.5805 C.ar    1  UNL1        0.0023
      3 C         140.6994  141.9204  162.0875 C.ar    1  UNL1        0.0367
      4 C         141.3581  140.7463  161.4259 C.ar    1  UNL1        0.1385
      5 C         141.8780  139.6113  162.2573 C.ar    1  UNL1        0.0367
      6 C         141.7392  139.6503  163.7503 C.ar    1  UNL1        0.0023
      7 C         138.8874  139.2800  165.7554 C.3     1  UNL1        0.0300
      8 C         139.8452  140.0912  166.5768 C.3     1  UNL1        0.1779
      9 C         140.9418  140.8634  165.9050 C.3     1  UNL1        0.2102
     10 O         141.8996  141.6746  166.7263 O.3     1  UNL1       -0.4717
     11 C         141.7608  141.7136  168.2195 C.ar    1  UNL1        0.1559
     12 C         142.7186  142.5248  169.0408 C.ar    1  UNL1        0.0382
     13 C         142.5798  142.5637  170.5338 C.ar    1  UNL1        0.0032
     14 C         141.4832  141.7915  171.2055 C.ar    1  UNL1        0.0015
     15 C         140.5254  140.9803  170.3842 C.ar    1  UNL1        0.0214
     16 C         140.6642  140.9414  168.8912 C.ar    1  UNL1        0.1395
     17 S         139.7064  140.1302  168.0698 S.O2    1  UNL1        0.0137
     18 O         139.1703  139.8541  169.4433 O.2     1  UNL1       -0.1685
     19 O         138.5624  139.2231  167.7254 O.2     1  UNL1       -0.1685
     20 O         141.4969  140.7073  159.9328 O.3     1  UNL1       -0.4754
     21 C         142.5745  141.5037  159.2586 C.3     1  UNL1        0.2068
     22 C         143.9797  141.4572  159.7814 C.3     1  UNL1        0.0646
     23 C         144.5252  142.6109  160.5698 C.3     1  UNL1        0.0759
     24 N         144.4838  142.5812  162.0689 N.3     1  UNL1       -0.2726
     25 C         145.0070  141.4807  162.9437 C.3     1  UNL1        0.0721
     26 C         144.7585  141.8660  164.3719 C.3     1  UNL1        0.0188
     27 C         144.0818  143.2048  164.3797 C.3     1  UNL1        0.0188
     28 C         143.9121  143.6467  162.9564 C.3     1  UNL1        0.0721
@<TRIPOS>BOND
     1     8     7    1
     2     8     9    1
     3     9     1    1
     4     1     2   ar
     5     2     3   ar
     6     3     4   ar
     7     4    20    1
     8    20    21    1
     9    21    22    1
    10    22    23    1
    11    23    24    1
    12    24    25    1
    13    25    26    1
    14    26    27    1
    15    27    28    1
    16     4     5   ar
    17     5     6   ar
    18     9    10    1
    19    10    11    1
    20    11    12   ar
    21    12    13   ar
    22    13    14   ar
    23    14    15   ar
    24    15    16   ar
    25    16    17    1
    26    17    18    2
    27    17    19    2
    28    17     8    1
    29     6     1   ar
    30    16    11   ar
    31    28    24    1
@<TRIPOS>MOLECULE
*****
 28 31 0 0 0
SMALL
GASTEIGER

@<TRIPOS>ATOM
      1 C         141.2162  141.5824  164.2569 C.ar    1  UNL1        0.0191
      2 C         140.4211  142.7073  163.6633 C.ar    1  UNL1        0.0023
      3 C         140.1219  142.7204  162.1936 C.ar    1  UNL1        0.0367
      4 C         140.6177  141.6085  161.3173 C.ar    1  UNL1        0.1385
      5 C         141.4128  140.4835  161.9108 C.ar    1  UNL1        0.0367
      6 C         141.7120  140.4705  163.3806 C.ar    1  UNL1        0.0023
      7 C         143.6950  142.9159  165.2948 C.3     1  UNL1        0.0300
      8 C         142.7549  142.2361  166.2457 C.3     1  UNL1        0.1779
      9 C         141.5155  141.5693  165.7267 C.3     1  UNL1        0.2102
     10 O         140.5754  140.8894  166.6775 O.3     1  UNL1       -0.4717
     11 C         140.8747  140.8764  168.1473 C.ar    1  UNL1        0.1559
     12 C         139.9346  140.1965  169.0981 C.ar    1  UNL1        0.0382
     13 C         140.2339  140.1835  170.5678 C.ar    1  UNL1        0.0032
     14 C         141.4733  140.8502  171.0868 C.ar    1  UNL1        0.0015
     15 C         142.4134  141.5301  170.1360 C.ar    1  UNL1        0.0214
     16 C         142.1140  141.5431  168.6663 C.ar    1  UNL1        0.1395
     17 S         143.0542  142.2230  167.7154 S.O2    1  UNL1        0.0137
     18 O         143.7658  142.4767  169.0113 O.2     1  UNL1       -0.1685
     19 O         144.2414  142.9910  167.2146 O.2     1  UNL1       -0.1685
     20 O         140.3184  141.6215  159.8475 O.3     1  UNL1       -0.4754
     21 C         138.9889  141.1385  159.3485 C.3     1  UNL1        0.2068
     22 C         138.4994  139.7709  159.7223 C.3     1  UNL1        0.0646
     23 C         137.5344  139.6043  160.8586 C.3     1  UNL1        0.0759
     24 N         138.0256  139.1405  162.1979 N.3     1  UNL1       -0.2726
     25 C         137.9355  139.9073  163.4840 C.3     1  UNL1        0.0721
     26 C         138.5473  139.0692  164.5671 C.3     1  UNL1        0.0188
     27 C         139.0156  137.7845  163.9504 C.3     1  UNL1        0.0188
     28 C         138.6931  137.8286  162.4862 C.3     1  UNL1        0.0721
@<TRIPOS>BOND
     1     8     7    1
     2     8     9    1
     3     9     1    1
     4     1     2   ar
     5     2     3   ar
     6     3     4   ar
     7     4    20    1
     8    20    21    1
     9    21    22    1
    10    22    23    1
    11    23    24    1
    12    24    25    1
    13    25    26    1
    14    26    27    1
    15    27    28    1
    16     4     5   ar
    17     5     6   ar
    18     9    10    1
    19    10    11    1
    20    11    12   ar
    21    12    13   ar
    22    13    14   ar
    23    14    15   ar
    24    15    16   ar
    25    16    17    1
    26    17    18    2
    27    17    19    2
    28    17     8    1
    29     6     1   ar
    30    16    11   ar
    31    28    24    1
@<TRIPOS>MOLECULE
*****
 28 31 0 0 0
SMALL
GASTEIGER

@<TRIPOS>ATOM
      1 C         139.9193  141.8847  164.6785 C.ar    1  UNL1        0.0191
      2 C         138.5699  141.3707  164.2725 C.ar    1  UNL1        0.0023
      3 C         137.9671  141.7963  162.9666 C.ar    1  UNL1        0.0367
      4 C         138.7137  142.7358  162.0667 C.ar    1  UNL1        0.1385
      5 C         140.0631  143.2498  162.4727 C.ar    1  UNL1        0.0367
      6 C         140.6659  142.8243  163.7786 C.ar    1  UNL1        0.0023
      7 C         141.9940  139.7186  164.7378 C.3     1  UNL1        0.0300
      8 C         141.5595  140.3761  166.0142 C.3     1  UNL1        0.1779
      9 C         140.5222  141.4592  165.9845 C.3     1  UNL1        0.2102
     10 O         140.0878  142.1168  167.2607 O.3     1  UNL1       -0.4717
     11 C         140.6907  141.6912  168.5667 C.ar    1  UNL1        0.1559
     12 C         140.2562  142.3488  169.8430 C.ar    1  UNL1        0.0382
     13 C         140.8591  141.9233  171.1489 C.ar    1  UNL1        0.0032
     14 C         141.8964  140.8402  171.1785 C.ar    1  UNL1        0.0015
     15 C         142.3309  140.1826  169.9023 C.ar    1  UNL1        0.0214
     16 C         141.7280  140.6082  168.5964 C.ar    1  UNL1        0.1395
     17 S         142.1624  139.9506  167.3200 S.O2    1  UNL1        0.0137
     18 O         143.0196  139.2070  168.3011 O.2     1  UNL1       -0.1685
     19 O         142.8946  139.0348  166.3845 O.2     1  UNL1       -0.1685
     20 O         138.1108  143.1613  160.7607 O.3     1  UNL1       -0.4754
     21 C         138.4736  142.4398  159.4967 C.3     1  UNL1        0.2068
     22 C         139.2909  141.1836  159.5584 C.3     1  UNL1        0.0646
     23 C         138.6125  139.8537  159.7044 C.3     1  UNL1        0.0759
     24 N         138.9041  138.9897  160.8953 N.3     1  UNL1       -0.2726
     25 C         137.8892  138.4251  161.8447 C.3     1  UNL1        0.0721
     26 C         138.6196  137.6250  162.8821 C.3     1  UNL1        0.0188
     27 C         140.0860  137.6952  162.5739 C.3     1  UNL1        0.0188
     28 C         140.2618  138.5387  161.3461 C.3     1  UNL1        0.0721
@<TRIPOS>BOND
     1     8     7    1
     2     8     9    1
     3     9     1    1
     4     1     2   ar
     5     2     3   ar
     6     3     4   ar
     7     4    20    1
     8    20    21    1
     9    21    22    1
    10    22    23    1
    11    23    24    1
    12    24    25    1
    13    25    26    1
    14    26    27    1
    15    27    28    1
    16     4     5   ar
    17     5     6   ar
    18     9    10    1
    19    10    11    1
    20    11    12   ar
    21    12    13   ar
    22    13    14   ar
    23    14    15   ar
    24    15    16   ar
    25    16    17    1
    26    17    18    2
    27    17    19    2
    28    17     8    1
    29     6     1   ar
    30    16    11   ar
    31    28    24    1
@<TRIPOS>MOLECULE
*****
 28 31 0 0 0
SMALL
GASTEIGER

@<TRIPOS>ATOM
      1 C         141.2551  139.7644  164.2370 C.ar    1  UNL1        0.0191
      2 C         141.1615  140.9622  163.3389 C.ar    1  UNL1        0.0023
      3 C         141.4450  140.8240  161.8725 C.ar    1  UNL1        0.0367
      4 C         141.8222  139.4880  161.3041 C.ar    1  UNL1        0.1385
      5 C         141.9159  138.2903  162.2022 C.ar    1  UNL1        0.0367
      6 C         141.6323  138.4285  163.6686 C.ar    1  UNL1        0.0023
      7 C         138.5611  139.0117  165.3212 C.3     1  UNL1        0.0300
      8 C         139.6246  139.5262  166.2456 C.3     1  UNL1        0.1779
      9 C         140.9716  139.9026  165.7035 C.3     1  UNL1        0.2102
     10 O         142.0350  140.4171  166.6278 O.3     1  UNL1       -0.4717
     11 C         141.7515  140.5552  168.0943 C.ar    1  UNL1        0.1559
     12 C         142.8149  141.0697  169.0186 C.ar    1  UNL1        0.0382
     13 C         142.5313  141.2078  170.4850 C.ar    1  UNL1        0.0032
     14 C         141.1843  140.8315  171.0272 C.ar    1  UNL1        0.0015
     15 C         140.1208  140.3170  170.1029 C.ar    1  UNL1        0.0214
     16 C         140.4044  140.1789  168.6364 C.ar    1  UNL1        0.1395
     17 S         139.3410  139.6644  167.7121 S.O2    1  UNL1        0.0137
     18 O         138.5985  139.6183  169.0146 O.2     1  UNL1       -0.1685
     19 O         138.0196  139.1339  167.2401 O.2     1  UNL1       -0.1685
     20 O         142.1058  139.3499  159.8376 O.3     1  UNL1       -0.4754
     21 C         140.9880  139.0538  158.8822 C.3     1  UNL1        0.2068
     22 C         139.5868  138.8947  159.3935 C.3     1  UNL1        0.0646
     23 C         138.6135  140.0305  159.2797 C.3     1  UNL1        0.0759
     24 N         138.2586  140.8384  160.4927 N.3     1  UNL1       -0.2726
     25 C         138.3442  142.3310  160.6138 C.3     1  UNL1        0.0721
     26 C         137.8943  142.7107  161.9935 C.3     1  UNL1        0.0188
     27 C         137.5307  141.4526  162.7250 C.3     1  UNL1        0.0188
     28 C         137.7559  140.2955  161.7975 C.3     1  UNL1        0.0721
@<TRIPOS>BOND
     1     8     7    1
     2     8     9    1
     3     9     1    1
     4     1     2   ar
     5     2     3   ar
     6     3     4   ar
     7     4    20    1
     8    20    21    1
     9    21    22    1
    10    22    23    1
    11    23    24    1
    12    24    25    1
    13    25    26    1
    14    26    27    1
    15    27    28    1
    16     4     5   ar
    17     5     6   ar
    18     9    10    1
    19    10    11    1
    20    11    12   ar
    21    12    13   ar
    22    13    14   ar
    23    14    15   ar
    24    15    16   ar
    25    16    17    1
    26    17    18    2
    27    17    19    2
    28    17     8    1
    29     6     1   ar
    30    16    11   ar
    31    28    24    1
@<TRIPOS>MOLECULE
*****
 28 31 0 0 0
SMALL
GASTEIGER

@<TRIPOS>ATOM
      1 C         140.6675  143.4640  164.8827 C.ar    1  UNL1        0.0191
      2 C         141.6633  144.3716  164.2236 C.ar    1  UNL1        0.0023
      3 C         141.2729  145.1546  163.0052 C.ar    1  UNL1        0.0367
      4 C         139.8867  145.0299  162.4459 C.ar    1  UNL1        0.1385
      5 C         138.8909  144.1223  163.1050 C.ar    1  UNL1        0.0367
      6 C         139.2812  143.3393  164.3234 C.ar    1  UNL1        0.0023
      7 C         142.5263  141.1229  164.6293 C.3     1  UNL1        0.0300
      8 C         141.9873  141.5104  165.9744 C.3     1  UNL1        0.1779
      9 C         141.0578  142.6809  166.1011 C.3     1  UNL1        0.2102
     10 O         140.5188  143.0684  167.4462 O.3     1  UNL1       -0.4717
     11 C         140.9091  142.2854  168.6647 C.ar    1  UNL1        0.1559
     12 C         140.3701  142.6729  170.0097 C.ar    1  UNL1        0.0382
     13 C         140.7604  141.8898  171.2281 C.ar    1  UNL1        0.0032
     14 C         141.6899  140.7193  171.1014 C.ar    1  UNL1        0.0015
     15 C         142.2289  140.3318  169.7563 C.ar    1  UNL1        0.0214
     16 C         141.8386  141.1149  168.5380 C.ar    1  UNL1        0.1395
     17 S         142.3776  140.7274  167.1928 S.O2    1  UNL1        0.0137
     18 O         143.0344  139.6839  168.0471 O.2     1  UNL1       -0.1685
     19 O         143.1448  139.9775  166.1444 O.2     1  UNL1       -0.1685
     20 O         139.4963  145.8130  161.2275 O.3     1  UNL1       -0.4754
     21 C         140.1845  145.5574  159.9194 C.3     1  UNL1        0.2068
     22 C         140.5721  144.1599  159.5364 C.3     1  UNL1        0.0646
     23 C         139.5182  143.1023  159.3915 C.3     1  UNL1        0.0759
     24 N         139.4287  141.9903  160.3941 N.3     1  UNL1       -0.2726
     25 C         140.5667  141.4333  161.1970 C.3     1  UNL1        0.0721
     26 C         140.0268  140.3387  162.0691 C.3     1  UNL1        0.0188
     27 C         138.5550  140.2193  161.8051 C.3     1  UNL1        0.0188
     28 C         138.1854  141.2400  160.7700 C.3     1  UNL1        0.0721
@<TRIPOS>BOND
     1     8     7    1
     2     8     9    1
     3     9     1    1
     4     1     2   ar
     5     2     3   ar
     6     3     4   ar
     7     4    20    1
     8    20    21    1
     9    21    22    1
    10    22    23    1
    11    23    24    1
    12    24    25    1
    13    25    26    1
    14    26    27    1
    15    27    28    1
    16     4     5   ar
    17     5     6   ar
    18     9    10    1
    19    10    11    1
    20    11    12   ar
    21    12    13   ar
    22    13    14   ar
    23    14    15   ar
    24    15    16   ar
    25    16    17    1
    26    17    18    2
    27    17    19    2
    28    17     8    1
    29     6     1   ar
    30    16    11   ar
    31    28    24    1
