@<TRIPOS>MOLECULE
*****
 37 40 0 0 0
SMALL
GASTEIGER

@<TRIPOS>ATOM
      1 N         141.3699  141.6986  161.0664 N.ar    1  UNL1       -0.2490
      2 C         140.1353  142.5504  161.0726 C.ar    1  UNL1        0.1024
      3 C         139.2616  142.0920  162.2025 C.ar    1  UNL1        0.1051
      4 C         139.9563  140.9569  162.8947 C.ar    1  UNL1        0.1578
      5 N         141.2593  140.7138  162.1925 N.ar    1  UNL1       -0.1539
      6 C         143.7247  142.6191  160.4681 C.3     1  UNL1        0.1151
      7 C         144.8690  142.7322  159.5049 C.3     1  UNL1        0.0330
      8 C         144.8030  142.0378  158.1769 C.3     1  UNL1        0.0587
      9 C         143.5926  141.2304  157.8121 C.3     1  UNL1        0.0180
     10 C         142.4483  141.1173  158.7753 C.3     1  UNL1        0.0268
     11 C         142.5143  141.8117  160.1032 C.3     1  UNL1        0.1193
     12 N         145.9474  142.1509  157.2137 N.3     1  UNL1       -0.2738
     13 C         146.2596  141.5733  155.8651 C.3     1  UNL1        0.0735
     14 C         147.5657  142.3108  155.8516 C.3     1  UNL1        0.0346
     15 C         147.2534  142.8885  157.2002 C.3     1  UNL1        0.0735
     16 N         143.8567  144.0078  163.1240 N.1     1  UNL1       -0.1958
     17 C         143.7907  143.3135  161.7960 C.1     1  UNL1        0.0741
     18 C         137.9275  142.6677  162.5749 C.2     1  UNL1        0.2470
     19 N         137.6786  144.1397  162.4291 N.am    1  UNL1       -0.3252
     20 O         136.8421  141.7714  163.0932 O.2     1  UNL1       -0.2702
     21 H         138.3910  144.7280  162.0889 H       1  UNL1        0.1453
     22 H         136.8030  144.5175  162.6735 H       1  UNL1        0.1453
     23 N         139.4389  140.1983  164.0807 N.pl3   1  UNL1       -0.2964
     24 H         138.9433  139.3578  163.9494 H       1  UNL1        0.1537
     25 C         139.6767  140.7201  165.4667 C.ar    1  UNL1        0.0494
     26 C         139.4147  139.8417  166.6541 C.ar    1  UNL1        0.0144
     27 C         139.6524  140.3636  168.0400 C.ar    1  UNL1       -0.0004
     28 C         140.1522  141.7638  168.2387 C.ar    1  UNL1        0.0128
     29 C         140.4142  142.6422  167.0515 C.ar    1  UNL1       -0.0004
     30 C         140.1764  142.1204  165.6654 C.ar    1  UNL1        0.0144
     31 C         140.3900  142.2857  169.6248 C.3     1  UNL1        0.2288
     32 O         139.2958  142.2203  170.6488 O.3     1  UNL1       -0.3730
     33 H         139.6125  142.5967  171.4849 H       1  UNL1        0.2111
     34 C         141.7219  142.8731  169.9868 C.3     1  UNL1        0.4258
     35 F         143.0538  143.4604  170.3488 F       1  UNL1       -0.1672
     36 F         141.1086  144.2415  170.0230 F       1  UNL1       -0.1672
     37 F         142.3352  141.5046  169.9507 F       1  UNL1       -0.1672
@<TRIPOS>BOND
     1    16    17    3
     2     6    17    1
     3     6     7    1
     4     7     8    1
     5     8    12    1
     6    12    13    1
     7    13    14    1
     8    14    15    1
     9     8     9    1
    10     9    10    1
    11    10    11    1
    12    11     1    1
    13     1     2   ar
    14     2     3   ar
    15     3    18    1
    16    18    19   am
    17    18    20    2
    18     3     4   ar
    19     4    23    1
    20    23    25    1
    21    25    26   ar
    22    26    27   ar
    23    27    28   ar
    24    28    31    1
    25    31    32    1
    26    31    34    1
    27    34    35    1
    28    34    36    1
    29    34    37    1
    30    28    29   ar
    31    29    30   ar
    32     4     5   ar
    33    11     6    1
    34     5     1   ar
    35    15    12    1
    36    30    25   ar
    37    19    21    1
    38    19    22    1
    39    23    24    1
    40    32    33    1
@<TRIPOS>MOLECULE
*****
 37 40 0 0 0
SMALL
GASTEIGER

@<TRIPOS>ATOM
      1 N         142.2610  141.8944  161.4242 N.ar    1  UNL1       -0.2490
      2 C         143.6763  141.9608  161.9163 C.ar    1  UNL1        0.1024
      3 C         143.8458  140.9191  162.9822 C.ar    1  UNL1        0.1051
      4 C         142.5351  140.2089  163.1489 C.ar    1  UNL1        0.1578
      5 N         141.5556  140.8117  162.1859 N.ar    1  UNL1       -0.1539
      6 C         141.2894  144.1807  160.6633 C.3     1  UNL1        0.1151
      7 C         140.6853  145.0452  159.5966 C.3     1  UNL1        0.0330
      8 C         140.4488  144.4879  158.2242 C.3     1  UNL1        0.0587
      9 C         140.8163  143.0662  157.9185 C.3     1  UNL1        0.0180
     10 C         141.4204  142.2017  158.9851 C.3     1  UNL1        0.0268
     11 C         141.6569  142.7590  160.3575 C.3     1  UNL1        0.1193
     12 N         139.8447  145.3525  157.1576 N.3     1  UNL1       -0.2738
     13 C         139.6127  146.8251  156.9910 C.3     1  UNL1        0.0735
     14 C         138.9905  146.5752  155.6492 C.3     1  UNL1        0.0346
     15 C         139.2225  145.1027  155.8158 C.3     1  UNL1        0.0735
     16 N         141.7624  145.2952  163.4081 N.1     1  UNL1       -0.1958
     17 C         141.5259  144.7380  162.0357 C.1     1  UNL1        0.0741
     18 C         145.1049  140.6371  163.7473 C.2     1  UNL1        0.2470
     19 N         146.1753  141.6836  163.8419 N.am    1  UNL1       -0.3252
     20 O         145.2935  139.3086  164.4176 O.2     1  UNL1       -0.2702
     21 H         146.0515  142.5556  163.4019 H       1  UNL1        0.1453
     22 H         147.0017  141.4985  164.3440 H       1  UNL1        0.1453
     23 N         142.2534  139.0920  164.1097 N.pl3   1  UNL1       -0.2964
     24 H         142.3611  138.1566  163.8224 H       1  UNL1        0.1537
     25 C         141.8074  139.4005  165.5082 C.ar    1  UNL1        0.0494
     26 C         142.7710  139.2649  166.6498 C.ar    1  UNL1        0.0144
     27 C         142.3250  139.5733  168.0483 C.ar    1  UNL1       -0.0004
     28 C         140.9155  140.0173  168.3053 C.ar    1  UNL1        0.0128
     29 C         139.9520  140.1529  167.1638 C.ar    1  UNL1       -0.0004
     30 C         140.3979  139.8445  165.7652 C.ar    1  UNL1        0.0144
     31 C         140.4695  140.3258  169.7039 C.3     1  UNL1        0.2288
     32 O         140.5531  139.2714  170.7675 O.3     1  UNL1       -0.3730
     33 H         140.2277  139.6325  171.6070 H       1  UNL1        0.2111
     34 C         139.9398  141.6886  170.0388 C.3     1  UNL1        0.4258
     35 F         139.4102  143.0515  170.3737 F       1  UNL1       -0.1672
     36 F         138.5645  141.1133  170.2051 F       1  UNL1       -0.1672
     37 F         141.3151  142.2640  169.8726 F       1  UNL1       -0.1672
@<TRIPOS>BOND
     1    16    17    3
     2     6    17    1
     3     6     7    1
     4     7     8    1
     5     8    12    1
     6    12    13    1
     7    13    14    1
     8    14    15    1
     9     8     9    1
    10     9    10    1
    11    10    11    1
    12    11     1    1
    13     1     2   ar
    14     2     3   ar
    15     3    18    1
    16    18    19   am
    17    18    20    2
    18     3     4   ar
    19     4    23    1
    20    23    25    1
    21    25    26   ar
    22    26    27   ar
    23    27    28   ar
    24    28    31    1
    25    31    32    1
    26    31    34    1
    27    34    35    1
    28    34    36    1
    29    34    37    1
    30    28    29   ar
    31    29    30   ar
    32     4     5   ar
    33    11     6    1
    34     5     1   ar
    35    15    12    1
    36    30    25   ar
    37    19    21    1
    38    19    22    1
    39    23    24    1
    40    32    33    1
@<TRIPOS>MOLECULE
*****
 37 40 0 0 0
SMALL
GASTEIGER

@<TRIPOS>ATOM
      1 N         140.8332  140.9142  160.7317 N.ar    1  UNL1       -0.2490
      2 C         139.3665  141.1639  160.9230 C.ar    1  UNL1        0.1024
      3 C         139.2082  142.1879  162.0075 C.ar    1  UNL1        0.1051
      4 C         140.5771  142.5712  162.4865 C.ar    1  UNL1        0.1578
      5 N         141.5813  141.7840  161.6980 N.ar    1  UNL1       -0.1539
      6 C         141.9562  138.6302  160.2101 C.3     1  UNL1        0.1151
      7 C         142.5674  137.6780  159.2253 C.3     1  UNL1        0.0330
      8 C         142.6668  138.0575  157.7776 C.3     1  UNL1        0.0587
      9 C         142.1550  139.3893  157.3145 C.3     1  UNL1        0.0180
     10 C         141.5438  140.3415  158.2992 C.3     1  UNL1        0.0268
     11 C         141.4444  139.9619  159.7470 C.3     1  UNL1        0.1193
     12 N         143.2781  137.1052  156.7928 N.3     1  UNL1       -0.2738
     13 C         143.3160  135.6132  156.6436 C.3     1  UNL1        0.0735
     14 C         144.1424  135.7585  155.4003 C.3     1  UNL1        0.0346
     15 C         144.1045  137.2506  155.5495 C.3     1  UNL1        0.0735
     16 N         141.7575  137.8711  163.1056 N.1     1  UNL1       -0.1958
     17 C         141.8569  138.2506  161.6578 C.1     1  UNL1        0.0741
     18 C         137.9092  142.7331  162.5226 C.2     1  UNL1        0.2470
     19 N         137.6438  144.2086  162.4758 N.am    1  UNL1       -0.3252
     20 O         136.8755  141.8026  163.0846 O.2     1  UNL1       -0.2702
     21 H         138.3222  144.8194  162.1070 H       1  UNL1        0.1453
     22 H         136.7912  144.5664  162.8139 H       1  UNL1        0.1453
     23 N         140.8872  143.5669  163.5647 N.pl3   1  UNL1       -0.2964
     24 H         140.7673  144.5292  163.3953 H       1  UNL1        0.1537
     25 C         141.3800  143.0962  164.9010 C.ar    1  UNL1        0.0494
     26 C         140.4052  142.8371  166.0112 C.ar    1  UNL1        0.0144
     27 C         140.8980  142.3665  167.3474 C.ar    1  UNL1       -0.0004
     28 C         142.3657  142.1549  167.5734 C.ar    1  UNL1        0.0128
     29 C         143.3405  142.4140  166.4633 C.ar    1  UNL1       -0.0004
     30 C         142.8477  142.8847  165.1270 C.ar    1  UNL1        0.0144
     31 C         142.8586  141.6842  168.9097 C.3     1  UNL1        0.2288
     32 O         143.0355  140.2176  169.1698 O.3     1  UNL1       -0.3730
     33 H         143.3583  140.0864  170.0751 H       1  UNL1        0.2111
     34 C         143.1746  142.6803  169.9859 C.3     1  UNL1        0.4258
     35 F         143.4906  143.6763  171.0621 F       1  UNL1       -0.1672
     36 F         144.6175  142.6652  169.5761 F       1  UNL1       -0.1672
     37 F         141.7317  142.6953  170.3957 F       1  UNL1       -0.1672
@<TRIPOS>BOND
     1    16    17    3
     2     6    17    1
     3     6     7    1
     4     7     8    1
     5     8    12    1
     6    12    13    1
     7    13    14    1
     8    14    15    1
     9     8     9    1
    10     9    10    1
    11    10    11    1
    12    11     1    1
    13     1     2   ar
    14     2     3   ar
    15     3    18    1
    16    18    19   am
    17    18    20    2
    18     3     4   ar
    19     4    23    1
    20    23    25    1
    21    25    26   ar
    22    26    27   ar
    23    27    28   ar
    24    28    31    1
    25    31    32    1
    26    31    34    1
    27    34    35    1
    28    34    36    1
    29    34    37    1
    30    28    29   ar
    31    29    30   ar
    32     4     5   ar
    33    11     6    1
    34     5     1   ar
    35    15    12    1
    36    30    25   ar
    37    19    21    1
    38    19    22    1
    39    23    24    1
    40    32    33    1
@<TRIPOS>MOLECULE
*****
 37 40 0 0 0
SMALL
GASTEIGER

@<TRIPOS>ATOM
      1 N         141.5553  141.1230  161.2469 N.ar    1  UNL1       -0.2490
      2 C         142.2152  142.4529  161.4607 C.ar    1  UNL1        0.1024
      3 C         141.5037  143.1483  162.5832 C.ar    1  UNL1        0.1051
      4 C         140.4040  142.2481  163.0632 C.ar    1  UNL1        0.1578
      5 N         140.4359  140.9964  162.2374 N.ar    1  UNL1       -0.1539
      6 C         142.4896  138.7710  160.6590 C.3     1  UNL1        0.1151
      7 C         142.8804  137.7474  159.6346 C.3     1  UNL1        0.0330
      8 C         142.7279  138.0519  158.1738 C.3     1  UNL1        0.0587
      9 C         142.1845  139.3801  157.7374 C.3     1  UNL1        0.0180
     10 C         141.7937  140.4038  158.7617 C.3     1  UNL1        0.0268
     11 C         141.9462  140.0992  160.2225 C.3     1  UNL1        0.1193
     12 N         143.1187  137.0282  157.1494 N.3     1  UNL1       -0.2738
     13 C         143.7322  137.0771  155.7815 C.3     1  UNL1        0.0735
     14 C         143.6715  135.5805  155.7008 C.3     1  UNL1        0.0346
     15 C         143.0580  135.5316  157.0687 C.3     1  UNL1        0.0735
     16 N         142.7947  138.1619  163.5806 N.1     1  UNL1       -0.1958
     17 C         142.6421  138.4664  162.1198 C.1     1  UNL1        0.0741
     18 C         141.8338  144.5056  163.1298 C.2     1  UNL1        0.2470
     19 N         143.0760  145.2145  162.6775 N.am    1  UNL1       -0.3252
     20 O         140.9217  145.1541  164.1286 O.2     1  UNL1       -0.2702
     21 H         143.6746  144.7889  162.0220 H       1  UNL1        0.1453
     22 H         143.2926  146.1053  163.0363 H       1  UNL1        0.1453
     23 N         139.4414  142.5472  164.1741 N.pl3   1  UNL1       -0.2964
     24 H         138.6604  143.1228  164.0071 H       1  UNL1        0.1537
     25 C         139.6688  141.9691  165.5394 C.ar    1  UNL1        0.0494
     26 C         140.3766  142.7760  166.5872 C.ar    1  UNL1        0.0144
     27 C         140.6039  142.1979  167.9525 C.ar    1  UNL1       -0.0004
     28 C         140.1235  140.8129  168.2700 C.ar    1  UNL1        0.0128
     29 C         139.4157  140.0060  167.2223 C.ar    1  UNL1       -0.0004
     30 C         139.1883  140.5841  165.8569 C.ar    1  UNL1        0.0144
     31 C         140.3508  140.2347  169.6354 C.3     1  UNL1        0.2288
     32 O         139.1815  139.8220  170.4793 O.3     1  UNL1       -0.3730
     33 H         139.5011  139.4713  171.3253 H       1  UNL1        0.2111
     34 C         141.7475  140.0693  170.1567 C.3     1  UNL1        0.4258
     35 F         143.1443  139.9039  170.6781 F       1  UNL1       -0.1672
     36 F         142.0594  139.1355  169.0250 F       1  UNL1       -0.1672
     37 F         141.4357  141.0032  171.2884 F       1  UNL1       -0.1672
@<TRIPOS>BOND
     1    16    17    3
     2     6    17    1
     3     6     7    1
     4     7     8    1
     5     8    12    1
     6    12    13    1
     7    13    14    1
     8    14    15    1
     9     8     9    1
    10     9    10    1
    11    10    11    1
    12    11     1    1
    13     1     2   ar
    14     2     3   ar
    15     3    18    1
    16    18    19   am
    17    18    20    2
    18     3     4   ar
    19     4    23    1
    20    23    25    1
    21    25    26   ar
    22    26    27   ar
    23    27    28   ar
    24    28    31    1
    25    31    32    1
    26    31    34    1
    27    34    35    1
    28    34    36    1
    29    34    37    1
    30    28    29   ar
    31    29    30   ar
    32     4     5   ar
    33    11     6    1
    34     5     1   ar
    35    15    12    1
    36    30    25   ar
    37    19    21    1
    38    19    22    1
    39    23    24    1
    40    32    33    1
@<TRIPOS>MOLECULE
*****
 37 40 0 0 0
SMALL
GASTEIGER

@<TRIPOS>ATOM
      1 N         141.2248  141.4791  160.8601 N.ar    1  UNL1       -0.2490
      2 C         140.0959  142.4533  161.0229 C.ar    1  UNL1        0.1024
      3 C         139.1352  141.8862  162.0257 C.ar    1  UNL1        0.1051
      4 C         139.6704  140.5615  162.4827 C.ar    1  UNL1        0.1578
      5 N         140.9618  140.3099  161.7623 N.ar    1  UNL1       -0.1539
      6 C         142.4602  140.9134  158.6456 C.3     1  UNL1        0.1151
      7 C         143.6442  141.0792  157.7397 C.3     1  UNL1        0.0330
      8 C         144.7767  141.9765  158.1424 C.3     1  UNL1        0.0587
      9 C         144.7253  142.7080  159.4509 C.3     1  UNL1        0.0180
     10 C         143.5414  142.5422  160.3567 C.3     1  UNL1        0.0268
     11 C         142.4088  141.6449  159.9541 C.3     1  UNL1        0.1193
     12 N         145.9608  142.1423  157.2364 N.3     1  UNL1       -0.2738
     13 C         147.2709  142.8674  157.3252 C.3     1  UNL1        0.0735
     14 C         147.6352  142.3769  155.9553 C.3     1  UNL1        0.0346
     15 C         146.3251  141.6518  155.8665 C.3     1  UNL1        0.0735
     16 N         140.1951  139.1188  157.8403 N.1     1  UNL1       -0.1958
     17 C         141.3276  140.0161  158.2430 C.1     1  UNL1        0.0741
     18 C         137.8628  142.5307  162.4900 C.2     1  UNL1        0.2470
     19 N         137.6762  144.0120  162.3454 N.am    1  UNL1       -0.3252
     20 O         136.7770  141.6939  163.0988 O.2     1  UNL1       -0.2702
     21 H         138.3888  144.5613  161.9458 H       1  UNL1        0.1453
     22 H         136.8410  144.4350  162.6502 H       1  UNL1        0.1453
     23 N         139.0271  139.6487  163.4841 N.pl3   1  UNL1       -0.2964
     24 H         138.4333  138.9247  163.1801 H       1  UNL1        0.1537
     25 C         139.2886  139.8391  164.9489 C.ar    1  UNL1        0.0494
     26 C         140.4094  140.7274  165.4014 C.ar    1  UNL1        0.0144
     27 C         140.6708  140.9177  166.8661 C.ar    1  UNL1       -0.0004
     28 C         139.8116  140.2197  167.8782 C.ar    1  UNL1        0.0128
     29 C         138.6909  139.3314  167.4257 C.ar    1  UNL1       -0.0004
     30 C         138.4294  139.1411  165.9610 C.ar    1  UNL1        0.0144
     31 C         140.0730  140.4101  169.3430 C.3     1  UNL1        0.2288
     32 O         140.7780  139.3411  170.1242 O.3     1  UNL1       -0.3730
     33 H         140.8659  139.6209  171.0487 H       1  UNL1        0.2111
     34 C         139.6295  141.6694  170.0266 C.3     1  UNL1        0.4258
     35 F         139.1859  142.9288  170.7102 F       1  UNL1       -0.1672
     36 F         140.9643  142.2928  169.7444 F       1  UNL1       -0.1672
     37 F         138.2946  141.0461  170.3088 F       1  UNL1       -0.1672
@<TRIPOS>BOND
     1    16    17    3
     2     6    17    1
     3     6     7    1
     4     7     8    1
     5     8    12    1
     6    12    13    1
     7    13    14    1
     8    14    15    1
     9     8     9    1
    10     9    10    1
    11    10    11    1
    12    11     1    1
    13     1     2   ar
    14     2     3   ar
    15     3    18    1
    16    18    19   am
    17    18    20    2
    18     3     4   ar
    19     4    23    1
    20    23    25    1
    21    25    26   ar
    22    26    27   ar
    23    27    28   ar
    24    28    31    1
    25    31    32    1
    26    31    34    1
    27    34    35    1
    28    34    36    1
    29    34    37    1
    30    28    29   ar
    31    29    30   ar
    32     4     5   ar
    33    11     6    1
    34     5     1   ar
    35    15    12    1
    36    30    25   ar
    37    19    21    1
    38    19    22    1
    39    23    24    1
    40    32    33    1
@<TRIPOS>MOLECULE
*****
 37 40 0 0 0
SMALL
GASTEIGER

@<TRIPOS>ATOM
      1 N         138.9251  142.0204  159.9468 N.ar    1  UNL1       -0.2490
      2 C         139.5003  140.6361  159.9991 C.ar    1  UNL1        0.1024
      3 C         138.9978  139.9721  161.2467 C.ar    1  UNL1        0.1051
      4 C         138.1120  140.9461  161.9656 C.ar    1  UNL1        0.1578
      5 N         138.0670  142.2120  161.1622 N.ar    1  UNL1       -0.1539
      6 C         138.5034  142.8799  157.5315 C.3     1  UNL1        0.1151
      7 C         138.7440  143.8945  156.4533 C.3     1  UNL1        0.0330
      8 C         139.6467  145.0642  156.7120 C.3     1  UNL1        0.0587
      9 C         140.3088  145.2193  158.0489 C.3     1  UNL1        0.0180
     10 C         140.0683  144.2047  159.1271 C.3     1  UNL1        0.0268
     11 C         139.1656  143.0350  158.8684 C.3     1  UNL1        0.1193
     12 N         139.8872  146.0789  155.6336 N.3     1  UNL1       -0.2738
     13 C         140.8624  146.2128  154.5018 C.3     1  UNL1        0.0735
     14 C         140.2274  147.5137  154.1086 C.3     1  UNL1        0.0346
     15 C         139.2522  147.3797  155.2405 C.3     1  UNL1        0.0735
     16 N         136.6980  140.5405  157.0141 N.1     1  UNL1       -0.1958
     17 C         137.6007  141.7102  157.2728 C.1     1  UNL1        0.0741
     18 C         139.3239  138.5788  161.6966 C.2     1  UNL1        0.2470
     19 N         140.6985  138.0212  161.4740 N.am    1  UNL1       -0.3252
     20 O         138.2754  137.7431  162.3691 O.2     1  UNL1       -0.2702
     21 H         141.3867  138.5696  161.0326 H       1  UNL1        0.1453
     22 H         140.9125  137.1067  161.7692 H       1  UNL1        0.1453
     23 N         137.3967  140.6978  163.2604 N.pl3   1  UNL1       -0.2964
     24 H         136.4268  140.5292  163.2626 H       1  UNL1        0.1537
     25 C         138.1593  140.7063  164.5521 C.ar    1  UNL1        0.0494
     26 C         138.9745  141.9062  164.9339 C.ar    1  UNL1        0.0144
     27 C         139.7371  141.9147  166.2255 C.ar    1  UNL1       -0.0004
     28 C         139.6844  140.7233  167.1353 C.ar    1  UNL1        0.0128
     29 C         138.8693  139.5235  166.7536 C.ar    1  UNL1       -0.0004
     30 C         138.1067  139.5149  165.4620 C.ar    1  UNL1        0.0144
     31 C         140.4471  140.7318  168.4271 C.3     1  UNL1        0.2288
     32 O         141.5709  139.7617  168.6409 O.3     1  UNL1       -0.3730
     33 H         141.9544  139.9000  169.5211 H       1  UNL1        0.2111
     34 C         140.0857  141.7104  169.5049 C.3     1  UNL1        0.4258
     35 F         139.7244  142.6891  170.5828 F       1  UNL1       -0.1672
     36 F         138.8673  140.8994  169.8329 F       1  UNL1       -0.1672
     37 F         141.3042  142.5215  169.1770 F       1  UNL1       -0.1672
@<TRIPOS>BOND
     1    16    17    3
     2     6    17    1
     3     6     7    1
     4     7     8    1
     5     8    12    1
     6    12    13    1
     7    13    14    1
     8    14    15    1
     9     8     9    1
    10     9    10    1
    11    10    11    1
    12    11     1    1
    13     1     2   ar
    14     2     3   ar
    15     3    18    1
    16    18    19   am
    17    18    20    2
    18     3     4   ar
    19     4    23    1
    20    23    25    1
    21    25    26   ar
    22    26    27   ar
    23    27    28   ar
    24    28    31    1
    25    31    32    1
    26    31    34    1
    27    34    35    1
    28    34    36    1
    29    34    37    1
    30    28    29   ar
    31    29    30   ar
    32     4     5   ar
    33    11     6    1
    34     5     1   ar
    35    15    12    1
    36    30    25   ar
    37    19    21    1
    38    19    22    1
    39    23    24    1
    40    32    33    1
@<TRIPOS>MOLECULE
*****
 37 40 0 0 0
SMALL
GASTEIGER

@<TRIPOS>ATOM
      1 N         139.9737  141.4220  162.0047 N.ar    1  UNL1       -0.2490
      2 C         140.7917  140.1746  162.1626 C.ar    1  UNL1        0.1024
      3 C         140.4845  139.5859  163.5076 C.ar    1  UNL1        0.1051
      4 C         139.4766  140.4695  164.1811 C.ar    1  UNL1        0.1578
      5 N         139.1609  141.6042  163.2522 N.ar    1  UNL1       -0.1539
      6 C         140.8632  143.5321  160.7774 C.3     1  UNL1        0.1151
      7 C         140.8586  144.4381  159.5820 C.3     1  UNL1        0.0330
      8 C         139.9601  144.1401  158.4184 C.3     1  UNL1        0.0587
      9 C         139.0661  142.9361  158.4503 C.3     1  UNL1        0.0180
     10 C         139.0707  142.0301  159.6457 C.3     1  UNL1        0.0268
     11 C         139.9692  142.3281  160.8093 C.3     1  UNL1        0.1193
     12 N         139.9556  145.0462  157.2230 N.3     1  UNL1       -0.2738
     13 C         139.8728  146.5296  157.0168 C.3     1  UNL1        0.0735
     14 C         139.9493  146.3276  155.5325 C.3     1  UNL1        0.0346
     15 C         140.0321  144.8442  155.7386 C.3     1  UNL1        0.0735
     16 N         142.6602  144.1281  163.1045 N.1     1  UNL1       -0.1958
     17 C         141.7617  143.8301  161.9410 C.1     1  UNL1        0.0741
     18 C         141.0805  138.3336  164.0789 C.2     1  UNL1        0.2470
     19 N         141.1824  137.0983  163.2340 N.am    1  UNL1       -0.3252
     20 O         141.5747  138.3165  165.4950 O.2     1  UNL1       -0.2702
     21 H         140.8580  137.1095  162.3046 H       1  UNL1        0.1453
     22 H         141.5736  136.2764  163.6090 H       1  UNL1        0.1453
     23 N         138.8878  140.2558  165.5440 N.pl3   1  UNL1       -0.2964
     24 H         138.0127  139.8148  165.6386 H       1  UNL1        0.1537
     25 C         139.6323  140.7141  166.7629 C.ar    1  UNL1        0.0494
     26 C         140.4440  141.9747  166.7161 C.ar    1  UNL1        0.0144
     27 C         141.1885  142.4329  167.9350 C.ar    1  UNL1       -0.0004
     28 C         141.1214  141.6306  169.2006 C.ar    1  UNL1        0.0128
     29 C         140.3098  140.3701  169.2473 C.ar    1  UNL1       -0.0004
     30 C         139.5653  139.9118  168.0285 C.ar    1  UNL1        0.0144
     31 C         141.8659  142.0889  170.4195 C.3     1  UNL1        0.2288
     32 O         141.1594  142.1810  171.7395 O.3     1  UNL1       -0.3730
     33 H         141.7800  142.4910  172.4174 H       1  UNL1        0.2111
     34 C         143.3171  142.4550  170.3184 C.3     1  UNL1        0.4258
     35 F         144.7682  142.8211  170.2174 F       1  UNL1       -0.1672
     36 F         143.6461  141.0439  169.9304 F       1  UNL1       -0.1672
     37 F         142.9881  143.8661  170.7065 F       1  UNL1       -0.1672
@<TRIPOS>BOND
     1    16    17    3
     2     6    17    1
     3     6     7    1
     4     7     8    1
     5     8    12    1
     6    12    13    1
     7    13    14    1
     8    14    15    1
     9     8     9    1
    10     9    10    1
    11    10    11    1
    12    11     1    1
    13     1     2   ar
    14     2     3   ar
    15     3    18    1
    16    18    19   am
    17    18    20    2
    18     3     4   ar
    19     4    23    1
    20    23    25    1
    21    25    26   ar
    22    26    27   ar
    23    27    28   ar
    24    28    31    1
    25    31    32    1
    26    31    34    1
    27    34    35    1
    28    34    36    1
    29    34    37    1
    30    28    29   ar
    31    29    30   ar
    32     4     5   ar
    33    11     6    1
    34     5     1   ar
    35    15    12    1
    36    30    25   ar
    37    19    21    1
    38    19    22    1
    39    23    24    1
    40    32    33    1
@<TRIPOS>MOLECULE
*****
 37 40 0 0 0
SMALL
GASTEIGER

@<TRIPOS>ATOM
      1 N         140.2876  140.3819  161.1563 N.ar    1  UNL1       -0.2490
      2 C         140.1323  141.8722  161.0864 C.ar    1  UNL1        0.1024
      3 C         139.4057  142.3209  162.3196 C.ar    1  UNL1        0.1051
      4 C         139.1119  141.1078  163.1517 C.ar    1  UNL1        0.1578
      5 N         139.6570  139.9095  162.4327 N.ar    1  UNL1       -0.1539
      6 C         142.3759  139.0755  160.3302 C.3     1  UNL1        0.1151
      7 C         143.0443  138.2096  159.3039 C.3     1  UNL1        0.0330
      8 C         142.2931  137.7843  158.0773 C.3     1  UNL1        0.0587
      9 C         140.8733  138.2249  157.8769 C.3     1  UNL1        0.0180
     10 C         140.2049  139.0907  158.9032 C.3     1  UNL1        0.0268
     11 C         140.9561  139.5160  160.1299 C.3     1  UNL1        0.1193
     12 N         142.9616  136.9184  157.0509 N.3     1  UNL1       -0.2738
     13 C         143.1041  135.4400  156.8409 C.3     1  UNL1        0.0735
     14 C         143.9070  135.6938  155.5995 C.3     1  UNL1        0.0346
     15 C         143.7645  137.1722  155.8095 C.3     1  UNL1        0.0735
     16 N         143.8784  139.9260  162.7836 N.1     1  UNL1       -0.1958
     17 C         143.1272  139.5007  161.5569 C.1     1  UNL1        0.0741
     18 C         139.0376  143.7344  162.6609 C.2     1  UNL1        0.2470
     19 N         137.6205  144.1996  162.5018 N.am    1  UNL1       -0.3252
     20 O         140.0865  144.6827  163.1613 O.2     1  UNL1       -0.2702
     21 H         136.9320  143.5772  162.1734 H       1  UNL1        0.1453
     22 H         137.3788  145.1273  162.7258 H       1  UNL1        0.1453
     23 N         138.3984  141.0953  164.4710 N.pl3   1  UNL1       -0.2964
     24 H         137.4192  140.9981  164.5002 H       1  UNL1        0.1537
     25 C         139.1769  141.2307  165.7460 C.ar    1  UNL1        0.0494
     26 C         139.2403  140.0845  166.7115 C.ar    1  UNL1        0.0144
     27 C         140.0188  140.2200  167.9864 C.ar    1  UNL1       -0.0004
     28 C         140.7340  141.5017  168.2959 C.ar    1  UNL1        0.0128
     29 C         140.6707  142.6478  167.3304 C.ar    1  UNL1       -0.0004
     30 C         139.8921  142.5124  166.0555 C.ar    1  UNL1        0.0144
     31 C         141.5126  141.6372  169.5709 C.3     1  UNL1        0.2288
     32 O         140.8675  141.3016  170.8828 O.3     1  UNL1       -0.3730
     33 H         141.5037  141.4428  171.6014 H       1  UNL1        0.2111
     34 C         142.9362  142.1083  169.5338 C.3     1  UNL1        0.4258
     35 F         144.3598  142.5795  169.4968 F       1  UNL1       -0.1672
     36 F         142.5217  143.4096  170.1542 F       1  UNL1       -0.1672
     37 F         143.3507  140.8070  168.9135 F       1  UNL1       -0.1672
@<TRIPOS>BOND
     1    16    17    3
     2     6    17    1
     3     6     7    1
     4     7     8    1
     5     8    12    1
     6    12    13    1
     7    13    14    1
     8    14    15    1
     9     8     9    1
    10     9    10    1
    11    10    11    1
    12    11     1    1
    13     1     2   ar
    14     2     3   ar
    15     3    18    1
    16    18    19   am
    17    18    20    2
    18     3     4   ar
    19     4    23    1
    20    23    25    1
    21    25    26   ar
    22    26    27   ar
    23    27    28   ar
    24    28    31    1
    25    31    32    1
    26    31    34    1
    27    34    35    1
    28    34    36    1
    29    34    37    1
    30    28    29   ar
    31    29    30   ar
    32     4     5   ar
    33    11     6    1
    34     5     1   ar
    35    15    12    1
    36    30    25   ar
    37    19    21    1
    38    19    22    1
    39    23    24    1
    40    32    33    1
@<TRIPOS>MOLECULE
*****
 37 40 0 0 0
SMALL
GASTEIGER

@<TRIPOS>ATOM
      1 N         140.7951  140.8035  160.9840 N.ar    1  UNL1       -0.2490
      2 C         139.3357  140.8917  161.3190 C.ar    1  UNL1        0.1024
      3 C         139.1710  141.9084  162.4094 C.ar    1  UNL1        0.1051
      4 C         140.5287  142.4486  162.7485 C.ar    1  UNL1        0.1578
      5 N         141.5324  141.7657  161.8675 N.ar    1  UNL1       -0.1539
      6 C         141.4554  140.3463  158.5132 C.3     1  UNL1        0.1151
      7 C         142.0697  139.4528  157.4768 C.3     1  UNL1        0.0330
      8 C         142.6381  138.1229  157.8747 C.3     1  UNL1        0.0587
      9 C         142.5922  137.6866  159.3091 C.3     1  UNL1        0.0180
     10 C         141.9779  138.5801  160.3455 C.3     1  UNL1        0.0268
     11 C         141.4095  139.9099  159.9475 C.3     1  UNL1        0.1193
     12 N         143.2525  137.2294  156.8382 N.3     1  UNL1       -0.2738
     13 C         144.0299  137.4493  155.5744 C.3     1  UNL1        0.0735
     14 C         144.1213  135.9658  155.3724 C.3     1  UNL1        0.0346
     15 C         143.3439  135.7458  156.6362 C.3     1  UNL1        0.0735
     16 N         140.3186  143.0060  157.7172 N.1     1  UNL1       -0.1958
     17 C         140.8870  141.6761  158.1152 C.1     1  UNL1        0.0741
     18 C         137.8759  142.3137  163.0487 C.2     1  UNL1        0.2470
     19 N         136.7961  141.2957  163.2667 N.am    1  UNL1       -0.3252
     20 O         137.6607  143.7372  163.4700 O.2     1  UNL1       -0.2702
     21 H         136.9374  140.3614  162.9902 H       1  UNL1        0.1453
     22 H         135.9462  141.5617  163.6863 H       1  UNL1        0.1453
     23 N         140.8297  143.4890  163.7862 N.pl3   1  UNL1       -0.2964
     24 H         140.6430  144.4376  163.6008 H       1  UNL1        0.1537
     25 C         141.4152  143.0839  165.1065 C.ar    1  UNL1        0.0494
     26 C         142.8971  142.8967  165.2441 C.ar    1  UNL1        0.0144
     27 C         143.4825  142.4916  166.5643 C.ar    1  UNL1       -0.0004
     28 C         142.5860  142.2737  167.7470 C.ar    1  UNL1        0.0128
     29 C         141.1042  142.4609  167.6095 C.ar    1  UNL1       -0.0004
     30 C         140.5187  142.8659  166.2892 C.ar    1  UNL1        0.0144
     31 C         143.1715  141.8686  169.0674 C.3     1  UNL1        0.2288
     32 O         144.2124  142.7279  169.7216 O.3     1  UNL1       -0.3730
     33 H         144.4825  142.3255  170.5618 H       1  UNL1        0.2111
     34 C         142.7160  140.6041  169.7335 C.3     1  UNL1        0.4258
     35 F         142.2605  139.3396  170.3995 F       1  UNL1       -0.1672
     36 F         143.0206  139.8352  168.4820 F       1  UNL1       -0.1672
     37 F         142.4114  141.3730  170.9849 F       1  UNL1       -0.1672
@<TRIPOS>BOND
     1    16    17    3
     2     6    17    1
     3     6     7    1
     4     7     8    1
     5     8    12    1
     6    12    13    1
     7    13    14    1
     8    14    15    1
     9     8     9    1
    10     9    10    1
    11    10    11    1
    12    11     1    1
    13     1     2   ar
    14     2     3   ar
    15     3    18    1
    16    18    19   am
    17    18    20    2
    18     3     4   ar
    19     4    23    1
    20    23    25    1
    21    25    26   ar
    22    26    27   ar
    23    27    28   ar
    24    28    31    1
    25    31    32    1
    26    31    34    1
    27    34    35    1
    28    34    36    1
    29    34    37    1
    30    28    29   ar
    31    29    30   ar
    32     4     5   ar
    33    11     6    1
    34     5     1   ar
    35    15    12    1
    36    30    25   ar
    37    19    21    1
    38    19    22    1
    39    23    24    1
    40    32    33    1
