@<TRIPOS>MOLECULE
*****
 28 30 0 0 0
SMALL
GASTEIGER

@<TRIPOS>ATOM
      1 C         139.5763  138.5790  162.8708 C.ar    1  UNL1        0.2207
      2 N         138.3478  137.9186  162.3187 N.ar    1  UNL1       -0.2120
      3 C         137.4137  138.6911  161.4353 C.ar    1  UNL1        0.1034
      4 C         137.7080  140.1241  161.1038 C.ar    1  UNL1        0.0414
      5 C         138.9364  140.7846  161.6558 C.ar    1  UNL1        0.1030
      6 N         139.8706  140.0120  162.5393 N.ar    1  UNL1       -0.2120
      7 C         139.2307  142.2176  161.3243 C.ar    1  UNL1        0.0981
      8 C         139.4274  142.7818  159.9484 C.ar    1  UNL1        0.1188
      9 N         139.6983  144.2509  160.0842 N.ar    1  UNL1       -0.2293
     10 C         139.6691  144.5946  161.5440 C.ar    1  UNL1        0.1208
     11 C         139.8900  145.9559  162.1339 C.3     1  UNL1        0.0718
     12 N         139.3801  143.3379  162.3104 N.ar    1  UNL1       -0.3155
     13 C         139.2614  143.2220  163.8012 C.3     1  UNL1        0.0868
     14 C         140.4965  143.1237  164.6466 C.3     1  UNL1        0.0245
     15 C         137.9074  143.2044  164.4467 C.3     1  UNL1        0.0245
     16 N         140.5104  137.8065  163.7543 N.pl3   1  UNL1       -0.2825
     17 H         140.7536  136.8808  163.5235 H       1  UNL1        0.1551
     18 C         142.2011  139.7198  167.4598 C.ar    1  UNL1        0.0534
     19 C         143.0951  138.9344  166.5466 C.ar    1  UNL1        0.0058
     20 C         142.5315  138.2967  165.3114 C.ar    1  UNL1        0.0148
     21 C         141.0740  138.4442  164.9894 C.ar    1  UNL1        0.0505
     22 C         140.1800  139.2296  165.9026 C.ar    1  UNL1        0.0148
     23 C         140.7436  139.8674  167.1378 C.ar    1  UNL1        0.0058
     24 C         143.6013  142.4700  169.9549 C.3     1  UNL1        0.1109
     25 N         143.0377  141.8322  168.7198 N.am    1  UNL1       -0.2992
     26 C         142.7647  140.3575  168.6950 C.2     1  UNL1        0.2459
     27 O         143.0553  139.5206  169.9053 O.2     1  UNL1       -0.2701
     28 H         142.8470  142.3816  167.9254 H       1  UNL1        0.1498
@<TRIPOS>BOND
     1    24    25    1
     2    25    26   am
     3    26    27    2
     4    26    18    1
     5    18    19   ar
     6    19    20   ar
     7    20    21   ar
     8    21    16    1
     9    16     1    1
    10     1     2   ar
    11     2     3   ar
    12     3     4   ar
    13     4     5   ar
    14     5     7    1
    15     7     8   ar
    16     8     9   ar
    17     9    10   ar
    18    10    11    1
    19    10    12   ar
    20    12    13    1
    21    13    14    1
    22    13    15    1
    23     5     6   ar
    24    21    22   ar
    25    22    23   ar
    26    23    18   ar
    27     6     1   ar
    28    12     7   ar
    29    25    28    1
    30    16    17    1
@<TRIPOS>MOLECULE
*****
 28 30 0 0 0
SMALL
GASTEIGER

@<TRIPOS>ATOM
      1 C         139.9493  138.4330  162.7721 C.ar    1  UNL1        0.2207
      2 N         140.7963  137.6415  161.8202 N.ar    1  UNL1       -0.2120
      3 C         141.4018  138.3097  160.6215 C.ar    1  UNL1        0.1034
      4 C         141.1604  139.7694  160.3748 C.ar    1  UNL1        0.0414
      5 C         140.3135  140.5610  161.3266 C.ar    1  UNL1        0.1030
      6 N         139.7079  139.8928  162.5254 N.ar    1  UNL1       -0.2120
      7 C         140.0721  142.0207  161.0799 C.ar    1  UNL1        0.0981
      8 C         139.4737  142.6183  159.8410 C.ar    1  UNL1        0.1188
      9 N         139.4185  144.1061  160.0241 N.ar    1  UNL1       -0.2293
     10 C         139.9828  144.4280  161.3761 C.ar    1  UNL1        0.1208
     11 C         140.1193  145.7981  161.9712 C.3     1  UNL1        0.0718
     12 N         140.3868  143.1391  162.0286 N.ar    1  UNL1       -0.3155
     13 C         140.9981  142.9942  163.3907 C.3     1  UNL1        0.0868
     14 C         142.4897  143.0025  163.5482 C.3     1  UNL1        0.0245
     15 C         140.1176  142.8409  164.5955 C.3     1  UNL1        0.0245
     16 N         139.3437  137.7649  163.9708 N.pl3   1  UNL1       -0.2825
     17 H         138.9397  136.8712  163.8845 H       1  UNL1        0.1551
     18 C         139.3737  139.8448  167.9611 C.ar    1  UNL1        0.0534
     19 C         140.5935  139.8782  167.0887 C.ar    1  UNL1        0.0058
     20 C         140.5835  139.1849  165.7586 C.ar    1  UNL1        0.0148
     21 C         139.3537  138.4582  165.3009 C.ar    1  UNL1        0.0505
     22 C         138.1340  138.4248  166.1732 C.ar    1  UNL1        0.0148
     23 C         138.1440  139.1181  167.5034 C.ar    1  UNL1        0.0058
     24 C         140.0309  142.5825  170.7581 C.3     1  UNL1        0.1109
     25 N         140.0209  141.8892  169.4280 N.am    1  UNL1       -0.2992
     26 C         139.3837  140.5381  169.2912 C.2     1  UNL1        0.2459
     27 O         138.7566  139.8804  170.4846 O.2     1  UNL1       -0.2701
     28 H         140.4325  142.3209  168.6448 H       1  UNL1        0.1498
@<TRIPOS>BOND
     1    24    25    1
     2    25    26   am
     3    26    27    2
     4    26    18    1
     5    18    19   ar
     6    19    20   ar
     7    20    21   ar
     8    21    16    1
     9    16     1    1
    10     1     2   ar
    11     2     3   ar
    12     3     4   ar
    13     4     5   ar
    14     5     7    1
    15     7     8   ar
    16     8     9   ar
    17     9    10   ar
    18    10    11    1
    19    10    12   ar
    20    12    13    1
    21    13    14    1
    22    13    15    1
    23     5     6   ar
    24    21    22   ar
    25    22    23   ar
    26    23    18   ar
    27     6     1   ar
    28    12     7   ar
    29    25    28    1
    30    16    17    1
@<TRIPOS>MOLECULE
*****
 28 30 0 0 0
SMALL
GASTEIGER

@<TRIPOS>ATOM
      1 C         141.0042  138.4482  162.8920 C.ar    1  UNL1        0.2207
      2 N         141.4666  137.6187  161.7308 N.ar    1  UNL1       -0.2120
      3 C         142.2306  138.2579  160.6094 C.ar    1  UNL1        0.1034
      4 C         142.5323  139.7267  160.6491 C.ar    1  UNL1        0.0414
      5 C         142.0700  140.5563  161.8101 C.ar    1  UNL1        0.1030
      6 N         141.3059  139.9170  162.9316 N.ar    1  UNL1       -0.2120
      7 C         142.3716  142.0251  161.8498 C.ar    1  UNL1        0.0981
      8 C         141.8966  143.0497  160.8626 C.ar    1  UNL1        0.1188
      9 N         142.4327  144.3851  161.2862 N.ar    1  UNL1       -0.2293
     10 C         143.2390  144.1858  162.5353 C.ar    1  UNL1        0.1208
     11 C         143.9571  145.2569  163.3015 C.3     1  UNL1        0.0718
     12 N         143.2013  142.7272  162.8835 N.ar    1  UNL1       -0.3155
     13 C         143.8750  142.0838  164.0592 C.3     1  UNL1        0.0868
     14 C         143.2495  142.1667  165.4199 C.3     1  UNL1        0.0245
     15 C         145.1743  141.3574  163.8740 C.3     1  UNL1        0.0245
     16 N         140.2402  137.8089  164.0134 N.pl3   1  UNL1       -0.2825
     17 H         139.8343  136.9207  163.8889 H       1  UNL1        0.1551
     18 C         139.8037  139.9510  167.9467 C.ar    1  UNL1        0.0534
     19 C         141.1670  139.7222  167.3645 C.ar    1  UNL1        0.0058
     20 C         141.3125  139.0082  166.0534 C.ar    1  UNL1        0.0148
     21 C         140.0947  138.5230  165.3245 C.ar    1  UNL1        0.0505
     22 C         138.7314  138.7517  165.9066 C.ar    1  UNL1        0.0148
     23 C         138.5859  139.4657  167.2178 C.ar    1  UNL1        0.0058
     24 C         139.8385  142.8399  170.6676 C.3     1  UNL1        0.1109
     25 N         139.9840  142.1258  169.3565 N.am    1  UNL1       -0.2992
     26 C         139.6582  140.6650  169.2578 C.2     1  UNL1        0.2459
     27 O         139.1869  139.9182  170.4703 O.2     1  UNL1       -0.2701
     28 H         140.2933  142.6160  168.5607 H       1  UNL1        0.1498
@<TRIPOS>BOND
     1    24    25    1
     2    25    26   am
     3    26    27    2
     4    26    18    1
     5    18    19   ar
     6    19    20   ar
     7    20    21   ar
     8    21    16    1
     9    16     1    1
    10     1     2   ar
    11     2     3   ar
    12     3     4   ar
    13     4     5   ar
    14     5     7    1
    15     7     8   ar
    16     8     9   ar
    17     9    10   ar
    18    10    11    1
    19    10    12   ar
    20    12    13    1
    21    13    14    1
    22    13    15    1
    23     5     6   ar
    24    21    22   ar
    25    22    23   ar
    26    23    18   ar
    27     6     1   ar
    28    12     7   ar
    29    25    28    1
    30    16    17    1
@<TRIPOS>MOLECULE
*****
 28 30 0 0 0
SMALL
GASTEIGER

@<TRIPOS>ATOM
      1 C         141.0128  138.9848  160.8094 C.ar    1  UNL1        0.2207
      2 N         141.6902  138.5165  159.5557 N.ar    1  UNL1       -0.2120
      3 C         142.9356  139.2009  159.0756 C.ar    1  UNL1        0.1034
      4 C         143.5037  140.3536  159.8493 C.ar    1  UNL1        0.0414
      5 C         142.8263  140.8219  161.1030 C.ar    1  UNL1        0.1030
      6 N         141.5809  140.1375  161.5831 N.ar    1  UNL1       -0.2120
      7 C         143.3944  141.9747  161.8766 C.ar    1  UNL1        0.0981
      8 C         143.7525  143.3201  161.3185 C.ar    1  UNL1        0.1188
      9 N         144.2835  144.1613  162.4412 N.ar    1  UNL1       -0.2293
     10 C         144.2535  143.3358  163.6932 C.ar    1  UNL1        0.1208
     11 C         144.6954  143.7831  165.0551 C.3     1  UNL1        0.0718
     12 N         143.7040  141.9844  163.3443 N.ar    1  UNL1       -0.3155
     13 C         143.4999  140.8430  164.2960 C.3     1  UNL1        0.0868
     14 C         142.2415  140.7592  165.1078 C.3     1  UNL1        0.0245
     15 C         144.5545  139.7854  164.4359 C.3     1  UNL1        0.0245
     16 N         139.7674  138.3003  161.2895 N.pl3   1  UNL1       -0.2825
     17 H         139.2218  137.7739  160.6615 H       1  UNL1        0.1551
     18 C         138.5250  138.6533  165.6002 C.ar    1  UNL1        0.0534
     19 C         138.1636  139.7338  164.6246 C.ar    1  UNL1        0.0058
     20 C         138.5777  139.6162  163.1877 C.ar    1  UNL1        0.0148
     21 C         139.3533  138.4180  162.7264 C.ar    1  UNL1        0.0505
     22 C         139.7148  137.3375  163.7020 C.ar    1  UNL1        0.0148
     23 C         139.3006  137.4552  165.1389 C.ar    1  UNL1        0.0058
     24 C         138.4738  139.7674  169.4089 C.3     1  UNL1        0.1109
     25 N         138.8879  139.6497  167.9720 N.am    1  UNL1       -0.2992
     26 C         138.1109  138.7710  167.0371 C.2     1  UNL1        0.2459
     27 O         136.9198  138.0100  167.5390 O.2     1  UNL1       -0.2701
     28 H         139.6697  140.1492  167.6425 H       1  UNL1        0.1498
@<TRIPOS>BOND
     1    24    25    1
     2    25    26   am
     3    26    27    2
     4    26    18    1
     5    18    19   ar
     6    19    20   ar
     7    20    21   ar
     8    21    16    1
     9    16     1    1
    10     1     2   ar
    11     2     3   ar
    12     3     4   ar
    13     4     5   ar
    14     5     7    1
    15     7     8   ar
    16     8     9   ar
    17     9    10   ar
    18    10    11    1
    19    10    12   ar
    20    12    13    1
    21    13    14    1
    22    13    15    1
    23     5     6   ar
    24    21    22   ar
    25    22    23   ar
    26    23    18   ar
    27     6     1   ar
    28    12     7   ar
    29    25    28    1
    30    16    17    1
@<TRIPOS>MOLECULE
*****
 28 30 0 0 0
SMALL
GASTEIGER

@<TRIPOS>ATOM
      1 C         139.3469  140.4818  160.4503 C.ar    1  UNL1        0.2207
      2 N         139.1260  140.7696  158.9948 N.ar    1  UNL1       -0.2120
      3 C         139.9778  141.7856  158.2934 C.ar    1  UNL1        0.1034
      4 C         141.0507  142.5139  159.0474 C.ar    1  UNL1        0.0414
      5 C         141.2717  142.2261  160.5028 C.ar    1  UNL1        0.1030
      6 N         140.4198  141.2101  161.2043 N.ar    1  UNL1       -0.2120
      7 C         142.3446  142.9544  161.2569 C.ar    1  UNL1        0.0981
      8 C         143.8177  142.8830  160.9837 C.ar    1  UNL1        0.1188
      9 N         144.5163  143.7664  161.9745 N.ar    1  UNL1       -0.2293
     10 C         143.4748  144.3838  162.8600 C.ar    1  UNL1        0.1208
     11 C         143.7306  145.3359  163.9905 C.3     1  UNL1        0.0718
     12 N         142.1326  143.8820  162.4165 N.ar    1  UNL1       -0.3155
     13 C         140.8106  144.2441  163.0257 C.3     1  UNL1        0.0868
     14 C         139.9451  145.2830  162.3765 C.3     1  UNL1        0.0245
     15 C         140.3541  143.5673  164.2841 C.3     1  UNL1        0.0245
     16 N         138.4951  139.4658  161.1517 N.pl3   1  UNL1       -0.2825
     17 H         137.9503  138.8345  160.6283 H       1  UNL1        0.1551
     18 C         138.4294  139.3032  165.6482 C.ar    1  UNL1        0.0534
     19 C         138.8859  138.1107  164.8612 C.ar    1  UNL1        0.0058
     20 C         138.9078  138.1649  163.3624 C.ar    1  UNL1        0.0148
     21 C         138.4732  139.4116  162.6505 C.ar    1  UNL1        0.0505
     22 C         138.0166  140.6041  163.4375 C.ar    1  UNL1        0.0148
     23 C         137.9947  140.5499  164.9364 C.ar    1  UNL1        0.0058
     24 C         139.3014  140.0768  169.4418 C.3     1  UNL1        0.1109
     25 N         139.3233  140.1310  167.9429 N.am    1  UNL1       -0.2992
     26 C         138.4075  139.2490  167.1471 C.2     1  UNL1        0.2459
     27 O         137.4698  138.3129  167.8501 O.2     1  UNL1       -0.2701
     28 H         139.9387  140.7454  167.4815 H       1  UNL1        0.1498
@<TRIPOS>BOND
     1    24    25    1
     2    25    26   am
     3    26    27    2
     4    26    18    1
     5    18    19   ar
     6    19    20   ar
     7    20    21   ar
     8    21    16    1
     9    16     1    1
    10     1     2   ar
    11     2     3   ar
    12     3     4   ar
    13     4     5   ar
    14     5     7    1
    15     7     8   ar
    16     8     9   ar
    17     9    10   ar
    18    10    11    1
    19    10    12   ar
    20    12    13    1
    21    13    14    1
    22    13    15    1
    23     5     6   ar
    24    21    22   ar
    25    22    23   ar
    26    23    18   ar
    27     6     1   ar
    28    12     7   ar
    29    25    28    1
    30    16    17    1
@<TRIPOS>MOLECULE
*****
 28 30 0 0 0
SMALL
GASTEIGER

@<TRIPOS>ATOM
      1 C         138.0788  140.0398  163.2473 C.ar    1  UNL1        0.2207
      2 N         138.4181  138.6073  162.9588 N.ar    1  UNL1       -0.2120
      3 C         139.1076  137.7757  163.9994 C.ar    1  UNL1        0.1034
      4 C         139.4578  138.3764  165.3285 C.ar    1  UNL1        0.0414
      5 C         139.1186  139.8087  165.6170 C.ar    1  UNL1        0.1030
      6 N         138.4290  140.6404  164.5764 N.ar    1  UNL1       -0.2120
      7 C         139.4688  140.4093  166.9461 C.ar    1  UNL1        0.0981
      8 C         139.1870  139.8037  168.2892 C.ar    1  UNL1        0.1188
      9 N         139.7063  140.7411  169.3387 N.ar    1  UNL1       -0.2293
     10 C         140.3090  141.9263  168.6443 C.ar    1  UNL1        0.1208
     11 C         140.9467  143.1088  169.3114 C.3     1  UNL1        0.0718
     12 N         140.1622  141.7212  167.1656 N.ar    1  UNL1       -0.3155
     13 C         140.6273  142.6627  166.0945 C.3     1  UNL1        0.0868
     14 C         141.9983  142.5104  165.5055 C.3     1  UNL1        0.0245
     15 C         139.7211  143.7567  165.6124 C.3     1  UNL1        0.0245
     16 N         137.3893  140.8714  162.2067 N.pl3   1  UNL1       -0.2825
     17 H         136.4194  140.7787  162.0657 H       1  UNL1        0.1551
     18 C         139.7542  143.7902  159.7291 C.ar    1  UNL1        0.0534
     19 C         139.5878  144.0191  161.2022 C.ar    1  UNL1        0.0058
     20 C         138.7995  143.0461  162.0280 C.ar    1  UNL1        0.0148
     21 C         138.1776  141.8443  161.3808 C.ar    1  UNL1        0.0505
     22 C         138.3440  141.6155  159.9078 C.ar    1  UNL1        0.0148
     23 C         139.1323  142.5884  159.0819 C.ar    1  UNL1        0.0058
     24 C         140.8823  146.0752  156.6868 C.3     1  UNL1        0.1109
     25 N         140.0941  145.1023  157.5126 N.am    1  UNL1       -0.2992
     26 C         140.5424  144.7631  158.9033 C.2     1  UNL1        0.2459
     27 O         141.7791  145.3969  159.4680 O.2     1  UNL1       -0.2701
     28 H         139.2824  144.6863  157.1419 H       1  UNL1        0.1498
@<TRIPOS>BOND
     1    24    25    1
     2    25    26   am
     3    26    27    2
     4    26    18    1
     5    18    19   ar
     6    19    20   ar
     7    20    21   ar
     8    21    16    1
     9    16     1    1
    10     1     2   ar
    11     2     3   ar
    12     3     4   ar
    13     4     5   ar
    14     5     7    1
    15     7     8   ar
    16     8     9   ar
    17     9    10   ar
    18    10    11    1
    19    10    12   ar
    20    12    13    1
    21    13    14    1
    22    13    15    1
    23     5     6   ar
    24    21    22   ar
    25    22    23   ar
    26    23    18   ar
    27     6     1   ar
    28    12     7   ar
    29    25    28    1
    30    16    17    1
@<TRIPOS>MOLECULE
*****
 28 30 0 0 0
SMALL
GASTEIGER

@<TRIPOS>ATOM
      1 C         140.3914  138.0229  164.7484 C.ar    1  UNL1        0.2207
      2 N         138.9672  137.9361  165.2111 N.ar    1  UNL1       -0.2120
      3 C         138.4838  138.8220  166.3208 C.ar    1  UNL1        0.1034
      4 C         139.4246  139.7947  166.9678 C.ar    1  UNL1        0.0414
      5 C         140.8488  139.8815  166.5052 C.ar    1  UNL1        0.1030
      6 N         141.3323  138.9956  165.3955 N.ar    1  UNL1       -0.2120
      7 C         141.7896  140.8542  167.1523 C.ar    1  UNL1        0.0981
      8 C         142.4474  142.0237  166.4818 C.ar    1  UNL1        0.1188
      9 N         143.3022  142.7205  167.4986 N.ar    1  UNL1       -0.2293
     10 C         143.1727  141.9816  168.7976 C.ar    1  UNL1        0.1208
     11 C         143.8577  142.3342  170.0846 C.3     1  UNL1        0.0718
     12 N         142.2379  140.8282  168.5835 N.ar    1  UNL1       -0.3155
     13 C         141.8240  139.8249  169.6190 C.3     1  UNL1        0.0868
     14 C         140.5594  140.0302  170.3990 C.3     1  UNL1        0.0245
     15 C         142.6749  138.6162  169.8744 C.3     1  UNL1        0.0245
     16 N         140.8748  137.1370  163.6387 N.pl3   1  UNL1       -0.2825
     17 H         140.7841  136.1596  163.7141 H       1  UNL1        0.1551
     18 C         142.7398  138.9468  159.9649 C.ar    1  UNL1        0.0534
     19 C         141.2567  138.7306  160.0242 C.ar    1  UNL1        0.0058
     20 C         140.6350  138.1273  161.2487 C.ar    1  UNL1        0.0148
     21 C         141.4965  137.7403  162.4141 C.ar    1  UNL1        0.0505
     22 C         142.9796  137.9565  162.3548 C.ar    1  UNL1        0.0148
     23 C         143.6013  138.5598  161.1303 C.ar    1  UNL1        0.0058
     24 C         143.9325  139.4182  156.2092 C.3     1  UNL1        0.1109
     25 N         143.3108  138.8150  157.4338 N.am    1  UNL1       -0.2992
     26 C         143.3615  139.5501  158.7403 C.2     1  UNL1        0.2459
     27 O         144.0338  140.8884  158.8223 O.2     1  UNL1       -0.2701
     28 H         142.8696  137.9365  157.3800 H       1  UNL1        0.1498
@<TRIPOS>BOND
     1    24    25    1
     2    25    26   am
     3    26    27    2
     4    26    18    1
     5    18    19   ar
     6    19    20   ar
     7    20    21   ar
     8    21    16    1
     9    16     1    1
    10     1     2   ar
    11     2     3   ar
    12     3     4   ar
    13     4     5   ar
    14     5     7    1
    15     7     8   ar
    16     8     9   ar
    17     9    10   ar
    18    10    11    1
    19    10    12   ar
    20    12    13    1
    21    13    14    1
    22    13    15    1
    23     5     6   ar
    24    21    22   ar
    25    22    23   ar
    26    23    18   ar
    27     6     1   ar
    28    12     7   ar
    29    25    28    1
    30    16    17    1
@<TRIPOS>MOLECULE
*****
 28 30 0 0 0
SMALL
GASTEIGER

@<TRIPOS>ATOM
      1 C         139.2393  139.5325  165.7025 C.ar    1  UNL1        0.2207
      2 N         138.9011  139.4846  167.1632 N.ar    1  UNL1       -0.2120
      3 C         139.6309  140.3677  168.1314 C.ar    1  UNL1        0.1034
      4 C         140.6990  141.2987  167.6390 C.ar    1  UNL1        0.0414
      5 C         141.0372  141.3467  166.1785 C.ar    1  UNL1        0.1030
      6 N         140.3074  140.4636  165.2102 N.ar    1  UNL1       -0.2120
      7 C         142.1053  142.2777  165.6862 C.ar    1  UNL1        0.0981
      8 C         143.5330  142.3032  166.1455 C.ar    1  UNL1        0.1188
      9 N         144.2433  143.3879  165.3913 N.ar    1  UNL1       -0.2293
     10 C         143.2546  144.0328  164.4658 C.ar    1  UNL1        0.1208
     11 C         143.5375  145.1651  163.5235 C.3     1  UNL1        0.0718
     12 N         141.9333  143.3467  164.6481 N.ar    1  UNL1       -0.3155
     13 C         140.6629  143.6723  163.9200 C.3     1  UNL1        0.0868
     14 C         139.6654  144.6091  164.5342 C.3     1  UNL1        0.0245
     15 C         140.3899  143.0611  162.5776 C.3     1  UNL1        0.0245
     16 N         138.5095  138.6495  164.7343 N.pl3   1  UNL1       -0.2825
     17 H         138.0052  137.8703  165.0626 H       1  UNL1        0.1551
     18 C         138.6250  139.5619  160.3293 C.ar    1  UNL1        0.0534
     19 C         139.2962  138.3290  160.8577 C.ar    1  UNL1        0.0058
     20 C         139.2577  138.0248  162.3260 C.ar    1  UNL1        0.0148
     21 C         138.5480  138.9536  163.2660 C.ar    1  UNL1        0.0505
     22 C         137.8767  140.1865  162.7376 C.ar    1  UNL1        0.0148
     23 C         137.9152  140.4907  161.2692 C.ar    1  UNL1        0.0058
     24 C         137.4976  140.7546  156.7159 C.3     1  UNL1        0.1109
     25 N         137.4591  140.4504  158.1843 N.am    1  UNL1       -0.2992
     26 C         138.6635  139.8660  158.8610 C.2     1  UNL1        0.2459
     27 O         139.9063  139.5857  158.0693 O.2     1  UNL1       -0.2701
     28 H         136.6434  140.6344  158.7038 H       1  UNL1        0.1498
@<TRIPOS>BOND
     1    24    25    1
     2    25    26   am
     3    26    27    2
     4    26    18    1
     5    18    19   ar
     6    19    20   ar
     7    20    21   ar
     8    21    16    1
     9    16     1    1
    10     1     2   ar
    11     2     3   ar
    12     3     4   ar
    13     4     5   ar
    14     5     7    1
    15     7     8   ar
    16     8     9   ar
    17     9    10   ar
    18    10    11    1
    19    10    12   ar
    20    12    13    1
    21    13    14    1
    22    13    15    1
    23     5     6   ar
    24    21    22   ar
    25    22    23   ar
    26    23    18   ar
    27     6     1   ar
    28    12     7   ar
    29    25    28    1
    30    16    17    1
@<TRIPOS>MOLECULE
*****
 28 30 0 0 0
SMALL
GASTEIGER

@<TRIPOS>ATOM
      1 C         143.7569  139.7091  160.2732 C.ar    1  UNL1        0.2207
      2 N         144.1359  139.5154  158.8348 N.ar    1  UNL1       -0.2120
      3 C         143.6378  140.4721  157.7925 C.ar    1  UNL1        0.1034
      4 C         142.7606  141.6226  158.1885 C.ar    1  UNL1        0.0414
      5 C         142.3815  141.8164  159.6268 C.ar    1  UNL1        0.1030
      6 N         142.8797  140.8596  160.6692 N.ar    1  UNL1       -0.2120
      7 C         141.5043  142.9669  160.0228 C.ar    1  UNL1        0.0981
      8 C         140.4119  143.5701  159.1904 C.ar    1  UNL1        0.1188
      9 N         139.7979  144.6922  159.9738 N.ar    1  UNL1       -0.2293
     10 C         140.5108  144.7826  161.2905 C.ar    1  UNL1        0.1208
     11 C         140.2202  145.7665  162.3848 C.3     1  UNL1        0.0718
     12 N         141.5654  143.7163  161.3207 N.ar    1  UNL1       -0.3155
     13 C         142.5145  143.4468  162.4506 C.3     1  UNL1        0.0868
     14 C         143.9169  143.9758  162.3945 C.3     1  UNL1        0.0245
     15 C         142.0610  142.6481  163.6367 C.3     1  UNL1        0.0245
     16 N         144.2550  138.7524  161.3155 N.pl3   1  UNL1       -0.2825
     17 H         144.8883  138.0405  161.0678 H       1  UNL1        0.1551
     18 C         142.8548  139.1359  165.5749 C.ar    1  UNL1        0.0534
     19 C         144.1371  139.7850  165.1456 C.ar    1  UNL1        0.0058
     20 C         144.6039  139.6571  163.7258 C.ar    1  UNL1        0.0148
     21 C         143.7883  138.8802  162.7353 C.ar    1  UNL1        0.0505
     22 C         142.5059  138.2312  163.1645 C.ar    1  UNL1        0.0148
     23 C         142.0392  138.3590  164.5843 C.ar    1  UNL1        0.0058
     24 C         140.5955  140.0261  168.7138 C.3     1  UNL1        0.1109
     25 N         141.0622  139.8983  167.2940 N.am    1  UNL1       -0.2992
     26 C         142.3880  139.2638  166.9946 C.2     1  UNL1        0.2459
     27 O         143.2470  138.7572  168.1150 O.2     1  UNL1       -0.2701
     28 H         140.4984  140.2308  166.5587 H       1  UNL1        0.1498
@<TRIPOS>BOND
     1    24    25    1
     2    25    26   am
     3    26    27    2
     4    26    18    1
     5    18    19   ar
     6    19    20   ar
     7    20    21   ar
     8    21    16    1
     9    16     1    1
    10     1     2   ar
    11     2     3   ar
    12     3     4   ar
    13     4     5   ar
    14     5     7    1
    15     7     8   ar
    16     8     9   ar
    17     9    10   ar
    18    10    11    1
    19    10    12   ar
    20    12    13    1
    21    13    14    1
    22    13    15    1
    23     5     6   ar
    24    21    22   ar
    25    22    23   ar
    26    23    18   ar
    27     6     1   ar
    28    12     7   ar
    29    25    28    1
    30    16    17    1
