@<TRIPOS>MOLECULE
*****
 42 45 0 0 0
SMALL
GASTEIGER

@<TRIPOS>ATOM
      1 C         139.6394  139.8830  157.9795 C.3     1  UNL1        0.0925
      2 C         140.3464  140.5236  156.8221 C.3     1  UNL1        0.0123
      3 C         141.1395  139.4626  156.1185 C.3     1  UNL1        0.0165
      4 C         140.9228  138.1661  156.8411 C.3     1  UNL1        0.0581
      5 C         139.9957  138.4260  157.9913 C.3     1  UNL1        0.0268
      6 N         141.5270  136.8423  156.4774 N.3     1  UNL1       -0.2739
      7 C         142.7780  136.3756  157.1610 C.3     1  UNL1        0.0724
      8 C         143.3823  135.0518  156.7973 C.3     1  UNL1        0.0217
      9 C         142.7355  134.1945  155.7500 C.3     1  UNL1        0.0251
     10 C         141.4845  134.6612  155.0664 C.3     1  UNL1        0.0217
     11 C         140.8802  135.9850  155.4301 C.3     1  UNL1        0.0724
     12 C         143.3398  132.8707  155.3863 C.ar    1  UNL1       -0.0223
     13 C         144.3573  132.2375  156.2884 C.ar    1  UNL1       -0.0020
     14 C         144.9615  130.9136  155.9247 C.ar    1  UNL1        0.0293
     15 C         144.5483  130.2230  154.6589 C.ar    1  UNL1        0.1401
     16 F         145.1525  128.8992  154.2952 F       1  UNL1       -0.2042
     17 C         143.5308  130.8562  153.7567 C.ar    1  UNL1        0.0293
     18 C         142.9266  132.1801  154.1204 C.ar    1  UNL1       -0.0020
     19 C         138.1006  141.0707  157.1303 C.3     1  UNL1        0.0298
     20 C         139.1124  141.2665  158.2203 C.3     1  UNL1        0.0961
     21 C         139.8811  141.7389  159.2244 C.3     1  UNL1        0.0298
     22 O         138.5852  142.6502  158.4610 O.3     1  UNL1       -0.3863
     23 H         139.0885  143.0678  159.1774 H       1  UNL1        0.2102
     24 C         138.8223  139.5316  159.1873 C.2     1  UNL1        0.2240
     25 O         137.3638  139.8787  159.2330 O.2     1  UNL1       -0.2750
     26 N         139.4638  138.8330  160.3495 N.am    1  UNL1       -0.3004
     27 H         140.4211  138.6052  160.3196 H       1  UNL1        0.1497
     28 C         138.6467  138.4816  161.5573 C.3     1  UNL1        0.1163
     29 C         138.4811  139.4777  162.6666 C.ar    1  UNL1       -0.0027
     30 C         138.6319  139.0425  164.0941 C.ar    1  UNL1        0.0012
     31 C         138.4663  140.0386  165.2033 C.ar    1  UNL1        0.0711
     32 C         138.1499  141.4699  164.8850 C.ar    1  UNL1        0.0077
     33 C         137.9991  141.9051  163.4575 C.ar    1  UNL1        0.0711
     34 C         138.1647  140.9090  162.3483 C.ar    1  UNL1        0.0012
     35 C         138.6171  139.6034  166.6309 C.3     1  UNL1        0.4186
     36 F         138.7679  139.1683  168.0584 F       1  UNL1       -0.1659
     37 F         137.4721  138.6496  166.4610 F       1  UNL1       -0.1659
     38 F         139.7622  140.5573  166.8007 F       1  UNL1       -0.1659
     39 C         137.6827  143.3363  163.1391 C.3     1  UNL1        0.4186
     40 F         137.3662  144.7676  162.8208 F       1  UNL1       -0.1659
     41 F         137.6511  143.6553  164.6045 F       1  UNL1       -0.1659
     42 F         137.7142  143.0174  161.6738 F       1  UNL1       -0.1659
@<TRIPOS>BOND
     1    19    20    1
     2    20    21    1
     3    20    22    1
     4     1    20    1
     5     1    24    1
     6    24    25    2
     7    24    26   am
     8    26    28    1
     9    28    29    1
    10    29    30   ar
    11    30    31   ar
    12    31    35    1
    13    35    36    1
    14    35    37    1
    15    35    38    1
    16    31    32   ar
    17    32    33   ar
    18    33    39    1
    19    39    40    1
    20    39    41    1
    21    39    42    1
    22    33    34   ar
    23     1     2    1
    24     2     3    1
    25     3     4    1
    26     4     6    1
    27     6     7    1
    28     7     8    1
    29     8     9    1
    30     9    12    1
    31    12    13   ar
    32    13    14   ar
    33    14    15   ar
    34    15    16    1
    35    15    17   ar
    36    17    18   ar
    37     9    10    1
    38    10    11    1
    39     4     5    1
    40     5     1    1
    41    34    29   ar
    42    11     6    1
    43    18    12   ar
    44    22    23    1
    45    26    27    1
@<TRIPOS>MOLECULE
*****
 42 45 0 0 0
SMALL
GASTEIGER

@<TRIPOS>ATOM
      1 C         139.6557  139.8836  158.0295 C.3     1  UNL1        0.0925
      2 C         140.3617  140.5277  156.8733 C.3     1  UNL1        0.0123
      3 C         141.1413  139.4657  156.1563 C.3     1  UNL1        0.0165
      4 C         140.9172  138.1651  156.8692 C.3     1  UNL1        0.0581
      5 C         139.9990  138.4234  158.0269 C.3     1  UNL1        0.0268
      6 N         141.5075  136.8391  156.4908 N.3     1  UNL1       -0.2739
      7 C         142.7211  136.3264  157.2079 C.3     1  UNL1        0.0724
      8 C         143.3115  135.0003  156.8295 C.3     1  UNL1        0.0217
      9 C         142.6882  134.1870  155.7340 C.3     1  UNL1        0.0251
     10 C         141.4746  134.6998  155.0169 C.3     1  UNL1        0.0217
     11 C         140.8842  136.0258  155.3953 C.3     1  UNL1        0.0724
     12 C         143.2786  132.8610  155.3557 C.ar    1  UNL1       -0.0223
     13 C         144.2622  132.1902  156.2681 C.ar    1  UNL1       -0.0020
     14 C         144.8525  130.8642  155.8898 C.ar    1  UNL1        0.0293
     15 C         144.4593  130.2090  154.5990 C.ar    1  UNL1        0.1401
     16 F         145.0496  128.8830  154.2206 F       1  UNL1       -0.2042
     17 C         143.4757  130.8799  153.6865 C.ar    1  UNL1        0.0293
     18 C         142.8853  132.2059  154.0648 C.ar    1  UNL1       -0.0020
     19 C         138.0904  141.0737  157.2337 C.3     1  UNL1        0.0298
     20 C         139.1424  141.2696  158.2849 C.3     1  UNL1        0.0961
     21 C         139.9492  141.7426  159.2584 C.3     1  UNL1        0.0298
     22 O         138.6290  142.6558  158.5403 O.3     1  UNL1       -0.3863
     23 H         139.1597  143.0740  159.2363 H       1  UNL1        0.2102
     24 C         138.8425  139.5291  159.2390 C.2     1  UNL1        0.2240
     25 O         137.3884  139.8928  159.2980 O.2     1  UNL1       -0.2750
     26 N         139.4832  138.8110  160.3895 N.am    1  UNL1       -0.3004
     27 H         140.4376  138.5723  160.3508 H       1  UNL1        0.1497
     28 C         138.6700  138.4566  161.5991 C.3     1  UNL1        0.1163
     29 C         138.5043  139.4516  162.7093 C.ar    1  UNL1       -0.0027
     30 C         138.1965  140.8850  162.3922 C.ar    1  UNL1        0.0012
     31 C         138.0308  141.8798  163.5024 C.ar    1  UNL1        0.0711
     32 C         138.1728  141.4414  164.9298 C.ar    1  UNL1        0.0077
     33 C         138.4806  140.0080  165.2470 C.ar    1  UNL1        0.0711
     34 C         138.6463  139.0131  164.1368 C.ar    1  UNL1        0.0012
     35 C         137.7230  143.3133  163.1853 C.3     1  UNL1        0.4186
     36 F         137.4152  144.7467  162.8681 F       1  UNL1       -0.1659
     37 F         137.7268  142.9900  161.7205 F       1  UNL1       -0.1659
     38 F         137.7191  143.6366  164.6500 F       1  UNL1       -0.1659
     39 C         138.6227  139.5695  166.6744 C.3     1  UNL1        0.4186
     40 F         138.7648  139.1310  168.1018 F       1  UNL1       -0.1659
     41 F         137.6923  138.4220  166.4145 F       1  UNL1       -0.1659
     42 F         139.5532  140.7170  166.9343 F       1  UNL1       -0.1659
@<TRIPOS>BOND
     1    19    20    1
     2    20    21    1
     3    20    22    1
     4     1    20    1
     5     1    24    1
     6    24    25    2
     7    24    26   am
     8    26    28    1
     9    28    29    1
    10    29    30   ar
    11    30    31   ar
    12    31    35    1
    13    35    36    1
    14    35    37    1
    15    35    38    1
    16    31    32   ar
    17    32    33   ar
    18    33    39    1
    19    39    40    1
    20    39    41    1
    21    39    42    1
    22    33    34   ar
    23     1     2    1
    24     2     3    1
    25     3     4    1
    26     4     6    1
    27     6     7    1
    28     7     8    1
    29     8     9    1
    30     9    12    1
    31    12    13   ar
    32    13    14   ar
    33    14    15   ar
    34    15    16    1
    35    15    17   ar
    36    17    18   ar
    37     9    10    1
    38    10    11    1
    39     4     5    1
    40     5     1    1
    41    34    29   ar
    42    11     6    1
    43    18    12   ar
    44    22    23    1
    45    26    27    1
@<TRIPOS>MOLECULE
*****
 42 45 0 0 0
SMALL
GASTEIGER

@<TRIPOS>ATOM
      1 C         140.6485  143.9411  160.9510 C.3     1  UNL1        0.0925
      2 C         141.7477  144.5782  160.1536 C.3     1  UNL1        0.0123
      3 C         142.2830  143.5518  159.1997 C.3     1  UNL1        0.0165
      4 C         141.5147  142.2804  159.4075 C.3     1  UNL1        0.0581
      5 C         140.5045  142.5210  160.4899 C.3     1  UNL1        0.0268
      6 N         141.7205  140.9943  158.6636 N.3     1  UNL1       -0.2739
      7 C         141.5329  140.9499  157.1760 C.3     1  UNL1        0.0724
      8 C         141.7387  139.6637  156.4321 C.3     1  UNL1        0.0217
      9 C         142.1320  138.4218  157.1757 C.3     1  UNL1        0.0251
     10 C         142.3196  138.4662  158.6634 C.3     1  UNL1        0.0217
     11 C         142.1138  139.7524  159.4073 C.3     1  UNL1        0.0724
     12 C         142.3377  137.1357  156.4318 C.ar    1  UNL1       -0.0223
     13 C         141.1558  136.3029  156.0325 C.ar    1  UNL1       -0.0020
     14 C         141.3615  135.0167  155.2886 C.ar    1  UNL1        0.0293
     15 C         142.7492  134.5633  154.9440 C.ar    1  UNL1        0.1401
     16 F         142.9550  133.2772  154.2001 F       1  UNL1       -0.2042
     17 C         143.9312  135.3962  155.3433 C.ar    1  UNL1        0.0293
     18 C         143.7255  136.6823  156.0872 C.ar    1  UNL1       -0.0020
     19 C         139.9751  145.8610  160.3507 C.3     1  UNL1        0.0298
     20 C         140.5588  145.2868  161.6075 C.3     1  UNL1        0.0961
     21 C         141.0488  145.0785  162.8480 C.3     1  UNL1        0.0298
     22 O         140.4690  146.6326  162.2640 O.3     1  UNL1       -0.3863
     23 H         140.8055  146.5726  163.1718 H       1  UNL1        0.2102
     24 C         139.5306  143.5853  161.8856 C.2     1  UNL1        0.2240
     25 O         138.3967  144.5441  162.0980 O.2     1  UNL1       -0.2750
     26 N         139.5464  142.2708  162.6080 N.am    1  UNL1       -0.3004
     27 H         140.2906  141.6415  162.4686 H       1  UNL1        0.1497
     28 C         138.4285  141.9150  163.5426 C.3     1  UNL1        0.1163
     29 C         138.7261  141.2171  164.8366 C.ar    1  UNL1       -0.0027
     30 C         138.1437  139.8620  165.1091 C.ar    1  UNL1        0.0012
     31 C         138.4413  139.1642  166.4031 C.ar    1  UNL1        0.0711
     32 C         139.3213  139.8215  167.4246 C.ar    1  UNL1        0.0077
     33 C         139.9038  141.1766  167.1521 C.ar    1  UNL1        0.0711
     34 C         139.6062  141.8744  165.8581 C.ar    1  UNL1        0.0012
     35 C         137.8588  137.8089  166.6757 C.3     1  UNL1        0.4186
     36 F         137.2764  136.4538  166.9482 F       1  UNL1       -0.1659
     37 F         137.0124  138.3924  167.7679 F       1  UNL1       -0.1659
     38 F         138.7052  137.2254  165.5834 F       1  UNL1       -0.1659
     39 C         140.7838  141.8339  168.1736 C.3     1  UNL1        0.4186
     40 F         141.6639  142.4913  169.1951 F       1  UNL1       -0.1659
     41 F         141.2329  140.4859  168.6542 F       1  UNL1       -0.1659
     42 F         140.3348  143.1820  167.6929 F       1  UNL1       -0.1659
@<TRIPOS>BOND
     1    19    20    1
     2    20    21    1
     3    20    22    1
     4     1    20    1
     5     1    24    1
     6    24    25    2
     7    24    26   am
     8    26    28    1
     9    28    29    1
    10    29    30   ar
    11    30    31   ar
    12    31    35    1
    13    35    36    1
    14    35    37    1
    15    35    38    1
    16    31    32   ar
    17    32    33   ar
    18    33    39    1
    19    39    40    1
    20    39    41    1
    21    39    42    1
    22    33    34   ar
    23     1     2    1
    24     2     3    1
    25     3     4    1
    26     4     6    1
    27     6     7    1
    28     7     8    1
    29     8     9    1
    30     9    12    1
    31    12    13   ar
    32    13    14   ar
    33    14    15   ar
    34    15    16    1
    35    15    17   ar
    36    17    18   ar
    37     9    10    1
    38    10    11    1
    39     4     5    1
    40     5     1    1
    41    34    29   ar
    42    11     6    1
    43    18    12   ar
    44    22    23    1
    45    26    27    1
@<TRIPOS>MOLECULE
*****
 42 45 0 0 0
SMALL
GASTEIGER

@<TRIPOS>ATOM
      1 C         138.8470  140.9307  160.5674 C.3     1  UNL1        0.0925
      2 C         139.1495  140.0756  159.3728 C.3     1  UNL1        0.0123
      3 C         139.3528  140.9810  158.1943 C.3     1  UNL1        0.0165
      4 C         139.1759  142.3956  158.6605 C.3     1  UNL1        0.0581
      5 C         138.8633  142.3645  160.1273 C.3     1  UNL1        0.0268
      6 N         139.2914  143.6254  157.8095 N.3     1  UNL1       -0.2739
      7 C         138.6204  143.6756  156.4689 C.3     1  UNL1        0.0724
      8 C         138.7359  144.9054  155.6179 C.3     1  UNL1        0.0217
      9 C         139.5224  146.0851  156.1075 C.3     1  UNL1        0.0251
     10 C         140.1934  146.0349  157.4482 C.3     1  UNL1        0.0217
     11 C         140.0779  144.8051  158.2992 C.3     1  UNL1        0.0724
     12 C         139.6378  147.3149  155.2565 C.ar    1  UNL1       -0.0223
     13 C         138.9719  148.5888  155.6851 C.ar    1  UNL1       -0.0020
     14 C         139.0874  149.8186  154.8341 C.ar    1  UNL1        0.0293
     15 C         139.8688  149.7745  153.5545 C.ar    1  UNL1        0.1401
     16 F         139.9843  151.0042  152.7034 F       1  UNL1       -0.2042
     17 C         140.5347  148.5005  153.1258 C.ar    1  UNL1        0.0293
     18 C         140.4192  147.2707  153.9768 C.ar    1  UNL1       -0.0020
     19 C         137.3589  139.4363  160.7959 C.3     1  UNL1        0.0298
     20 C         138.7638  139.6182  161.2889 C.3     1  UNL1        0.0961
     21 C         139.9724  139.4913  161.8766 C.3     1  UNL1        0.0298
     22 O         138.6805  138.3057  162.0104 O.3     1  UNL1       -0.3863
     23 H         139.5191  138.1337  162.4666 H       1  UNL1        0.2102
     24 C         138.5271  141.5114  161.9129 C.2     1  UNL1        0.2240
     25 O         137.1078  141.5445  162.3973 O.2     1  UNL1       -0.2750
     26 N         139.6264  142.0591  162.7741 N.am    1  UNL1       -0.3004
     27 H         140.5579  142.0373  162.4562 H       1  UNL1        0.1497
     28 C         139.3065  142.6398  164.1196 C.3     1  UNL1        0.1163
     29 C         139.3824  141.7786  165.3455 C.ar    1  UNL1       -0.0027
     30 C         140.1344  142.2563  166.5522 C.ar    1  UNL1        0.0012
     31 C         140.2103  141.3952  167.7780 C.ar    1  UNL1        0.0711
     32 C         139.5342  140.0563  167.7971 C.ar    1  UNL1        0.0077
     33 C         138.7822  139.5786  166.5903 C.ar    1  UNL1        0.0711
     34 C         138.7063  140.4398  165.3645 C.ar    1  UNL1        0.0012
     35 C         140.9623  141.8729  168.9849 C.3     1  UNL1        0.4186
     36 F         141.7142  142.3505  170.1916 F       1  UNL1       -0.1659
     37 F         141.7324  140.5861  169.0143 F       1  UNL1       -0.1659
     38 F         140.1921  143.1597  168.9554 F       1  UNL1       -0.1659
     39 C         138.1061  138.2398  166.6094 C.3     1  UNL1        0.4186
     40 F         137.4301  136.9009  166.6284 F       1  UNL1       -0.1659
     41 F         138.8968  137.8234  165.4046 F       1  UNL1       -0.1659
     42 F         137.3155  138.6562  167.8142 F       1  UNL1       -0.1659
@<TRIPOS>BOND
     1    19    20    1
     2    20    21    1
     3    20    22    1
     4     1    20    1
     5     1    24    1
     6    24    25    2
     7    24    26   am
     8    26    28    1
     9    28    29    1
    10    29    30   ar
    11    30    31   ar
    12    31    35    1
    13    35    36    1
    14    35    37    1
    15    35    38    1
    16    31    32   ar
    17    32    33   ar
    18    33    39    1
    19    39    40    1
    20    39    41    1
    21    39    42    1
    22    33    34   ar
    23     1     2    1
    24     2     3    1
    25     3     4    1
    26     4     6    1
    27     6     7    1
    28     7     8    1
    29     8     9    1
    30     9    12    1
    31    12    13   ar
    32    13    14   ar
    33    14    15   ar
    34    15    16    1
    35    15    17   ar
    36    17    18   ar
    37     9    10    1
    38    10    11    1
    39     4     5    1
    40     5     1    1
    41    34    29   ar
    42    11     6    1
    43    18    12   ar
    44    22    23    1
    45    26    27    1
@<TRIPOS>MOLECULE
*****
 42 45 0 0 0
SMALL
GASTEIGER

@<TRIPOS>ATOM
      1 C         139.9058  143.6890  162.7773 C.3     1  UNL1        0.0925
      2 C         139.6727  145.0067  162.0994 C.3     1  UNL1        0.0123
      3 C         140.5687  145.0749  160.8984 C.3     1  UNL1        0.0165
      4 C         141.3555  143.7995  160.8340 C.3     1  UNL1        0.0581
      5 C         140.9458  142.9430  161.9952 C.3     1  UNL1        0.0268
      6 N         142.3734  143.4431  159.7914 N.3     1  UNL1       -0.2739
      7 C         143.6560  142.7767  160.1922 C.3     1  UNL1        0.0724
      8 C         144.6738  142.4203  159.1497 C.3     1  UNL1        0.0217
      9 C         144.4091  142.7304  157.7061 C.3     1  UNL1        0.0251
     10 C         143.1264  143.3970  157.3053 C.3     1  UNL1        0.0217
     11 C         142.1086  143.7533  158.3479 C.3     1  UNL1        0.0724
     12 C         145.4269  142.3741  156.6636 C.ar    1  UNL1       -0.0223
     13 C         144.9831  141.8441  155.3324 C.ar    1  UNL1       -0.0020
     14 C         146.0009  141.4877  154.2898 C.ar    1  UNL1        0.0293
     15 C         147.4626  141.6614  154.5784 C.ar    1  UNL1        0.1401
     16 F         148.4805  141.3051  153.5359 F       1  UNL1       -0.2042
     17 C         147.9065  142.1914  155.9097 C.ar    1  UNL1        0.0293
     18 C         146.8886  142.5478  156.9523 C.ar    1  UNL1       -0.0020
     19 C         139.9478  144.5146  164.7309 C.3     1  UNL1        0.0298
     20 C         138.8691  144.1812  163.7433 C.3     1  UNL1        0.0961
     21 C         137.7015  143.9972  163.0914 C.3     1  UNL1        0.0298
     22 O         137.8325  144.6733  164.7094 O.3     1  UNL1       -0.3863
     23 H         136.9514  144.5761  164.3156 H       1  UNL1        0.2102
     24 C         139.9221  142.4743  163.6571 C.2     1  UNL1        0.2240
     25 O         138.6317  141.8738  164.1306 O.2     1  UNL1       -0.2750
     26 N         141.2289  141.8601  164.0635 N.am    1  UNL1       -0.3004
     27 H         142.0758  142.2542  163.7528 H       1  UNL1        0.1497
     28 C         141.2452  140.6454  164.9433 C.3     1  UNL1        0.1163
     29 C         141.2480  140.8000  166.4354 C.ar    1  UNL1       -0.0027
     30 C         142.4637  141.3359  167.1316 C.ar    1  UNL1        0.0012
     31 C         142.4664  141.4905  168.6236 C.ar    1  UNL1        0.0711
     32 C         141.2534  141.1091  169.4194 C.ar    1  UNL1        0.0077
     33 C         140.0377  140.5731  168.7231 C.ar    1  UNL1        0.0711
     34 C         140.0350  140.4185  167.2312 C.ar    1  UNL1        0.0012
     35 C         143.6821  142.0265  169.3199 C.3     1  UNL1        0.4186
     36 F         144.8978  142.5625  170.0163 F       1  UNL1       -0.1659
     37 F         143.3742  141.1731  170.5144 F       1  UNL1       -0.1659
     38 F         143.9901  142.8799  168.1255 F       1  UNL1       -0.1659
     39 C         138.8248  140.1916  169.5189 C.3     1  UNL1        0.4186
     40 F         137.6118  139.8102  170.3146 F       1  UNL1       -0.1659
     41 F         138.3157  139.3892  168.3583 F       1  UNL1       -0.1659
     42 F         139.3338  140.9940  170.6795 F       1  UNL1       -0.1659
@<TRIPOS>BOND
     1    19    20    1
     2    20    21    1
     3    20    22    1
     4     1    20    1
     5     1    24    1
     6    24    25    2
     7    24    26   am
     8    26    28    1
     9    28    29    1
    10    29    30   ar
    11    30    31   ar
    12    31    35    1
    13    35    36    1
    14    35    37    1
    15    35    38    1
    16    31    32   ar
    17    32    33   ar
    18    33    39    1
    19    39    40    1
    20    39    41    1
    21    39    42    1
    22    33    34   ar
    23     1     2    1
    24     2     3    1
    25     3     4    1
    26     4     6    1
    27     6     7    1
    28     7     8    1
    29     8     9    1
    30     9    12    1
    31    12    13   ar
    32    13    14   ar
    33    14    15   ar
    34    15    16    1
    35    15    17   ar
    36    17    18   ar
    37     9    10    1
    38    10    11    1
    39     4     5    1
    40     5     1    1
    41    34    29   ar
    42    11     6    1
    43    18    12   ar
    44    22    23    1
    45    26    27    1
@<TRIPOS>MOLECULE
*****
 42 45 0 0 0
SMALL
GASTEIGER

@<TRIPOS>ATOM
      1 C         138.8133  141.0064  160.5123 C.3     1  UNL1        0.0925
      2 C         139.0898  140.1516  159.3112 C.3     1  UNL1        0.0123
      3 C         139.2899  141.0583  158.1332 C.3     1  UNL1        0.0165
      4 C         139.1371  142.4735  158.6062 C.3     1  UNL1        0.0581
      5 C         138.8426  142.4414  160.0767 C.3     1  UNL1        0.0268
      6 N         139.2577  143.7046  157.7578 N.3     1  UNL1       -0.2739
      7 C         138.5246  143.7904  156.4520 C.3     1  UNL1        0.0724
      8 C         138.6452  145.0215  155.6036 C.3     1  UNL1        0.0217
      9 C         139.4989  146.1669  156.0610 C.3     1  UNL1        0.0251
     10 C         140.2320  146.0811  157.3669 C.3     1  UNL1        0.0217
     11 C         140.1114  144.8500  158.2153 C.3     1  UNL1        0.0724
     12 C         139.6195  147.3981  155.2126 C.ar    1  UNL1       -0.0223
     13 C         138.9525  148.6718  155.6402 C.ar    1  UNL1       -0.0020
     14 C         139.0731  149.9029  154.7918 C.ar    1  UNL1        0.0293
     15 C         139.8606  149.8603  153.5158 C.ar    1  UNL1        0.1401
     16 F         139.9813  151.0913  152.6674 F       1  UNL1       -0.2042
     17 C         140.5276  148.5865  153.0883 C.ar    1  UNL1        0.0293
     18 C         140.4070  147.3554  153.9367 C.ar    1  UNL1       -0.0020
     19 C         137.3066  139.5339  160.7607 C.3     1  UNL1        0.0298
     20 C         138.7223  139.6927  161.2306 C.3     1  UNL1        0.0961
     21 C         139.9386  139.5452  161.7972 C.3     1  UNL1        0.0298
     22 O         138.6312  138.3789  161.9488 O.3     1  UNL1       -0.3863
     23 H         139.4747  138.1925  162.3901 H       1  UNL1        0.2102
     24 C         138.5178  141.5866  161.8636 C.2     1  UNL1        0.2240
     25 O         137.1093  141.6081  162.3790 O.2     1  UNL1       -0.2750
     26 N         139.6309  142.1454  162.6997 N.am    1  UNL1       -0.3004
     27 H         140.5554  142.1313  162.3615 H       1  UNL1        0.1497
     28 C         139.3355  142.7255  164.0510 C.3     1  UNL1        0.1163
     29 C         139.4180  141.8599  165.2732 C.ar    1  UNL1       -0.0027
     30 C         138.7454  140.5193  165.2897 C.ar    1  UNL1        0.0012
     31 C         138.8280  139.6537  166.5119 C.ar    1  UNL1        0.0711
     32 C         139.5832  140.1287  167.7177 C.ar    1  UNL1        0.0077
     33 C         140.2558  141.4693  167.7013 C.ar    1  UNL1        0.0711
     34 C         140.1732  142.3349  166.4791 C.ar    1  UNL1        0.0012
     35 C         138.1553  138.3130  166.5284 C.3     1  UNL1        0.4186
     36 F         137.4827  136.9724  166.5449 F       1  UNL1       -0.1659
     37 F         137.3447  138.7344  167.7180 F       1  UNL1       -0.1659
     38 F         138.9660  137.8917  165.3387 F       1  UNL1       -0.1659
     39 C         141.0110  141.9444  168.9071 C.3     1  UNL1        0.4186
     40 F         141.7662  142.4194  170.1130 F       1  UNL1       -0.1659
     41 F         140.1606  143.1791  168.9533 F       1  UNL1       -0.1659
     42 F         141.8615  140.7096  168.8609 F       1  UNL1       -0.1659
@<TRIPOS>BOND
     1    19    20    1
     2    20    21    1
     3    20    22    1
     4     1    20    1
     5     1    24    1
     6    24    25    2
     7    24    26   am
     8    26    28    1
     9    28    29    1
    10    29    30   ar
    11    30    31   ar
    12    31    35    1
    13    35    36    1
    14    35    37    1
    15    35    38    1
    16    31    32   ar
    17    32    33   ar
    18    33    39    1
    19    39    40    1
    20    39    41    1
    21    39    42    1
    22    33    34   ar
    23     1     2    1
    24     2     3    1
    25     3     4    1
    26     4     6    1
    27     6     7    1
    28     7     8    1
    29     8     9    1
    30     9    12    1
    31    12    13   ar
    32    13    14   ar
    33    14    15   ar
    34    15    16    1
    35    15    17   ar
    36    17    18   ar
    37     9    10    1
    38    10    11    1
    39     4     5    1
    40     5     1    1
    41    34    29   ar
    42    11     6    1
    43    18    12   ar
    44    22    23    1
    45    26    27    1
@<TRIPOS>MOLECULE
*****
 42 45 0 0 0
SMALL
GASTEIGER

@<TRIPOS>ATOM
      1 C         139.8233  143.7232  163.0909 C.3     1  UNL1        0.0925
      2 C         139.5824  145.0271  162.3896 C.3     1  UNL1        0.0123
      3 C         140.4817  145.0813  161.1904 C.3     1  UNL1        0.0165
      4 C         141.2784  143.8110  161.1505 C.3     1  UNL1        0.0581
      5 C         140.8714  142.9716  162.3251 C.3     1  UNL1        0.0268
      6 N         142.3023  143.4445  160.1173 N.3     1  UNL1       -0.2739
      7 C         142.1028  143.8495  158.6869 C.3     1  UNL1        0.0724
      8 C         143.1266  143.4829  157.6538 C.3     1  UNL1        0.0217
      9 C         144.3501  142.7113  158.0511 C.3     1  UNL1        0.0251
     10 C         144.5496  142.3063  159.4816 C.3     1  UNL1        0.0217
     11 C         143.5257  142.6729  160.5147 C.3     1  UNL1        0.0724
     12 C         145.3739  142.3448  157.0180 C.ar    1  UNL1       -0.0223
     13 C         144.9665  141.5690  155.8006 C.ar    1  UNL1       -0.0020
     14 C         145.9904  141.2024  154.7675 C.ar    1  UNL1        0.0293
     15 C         147.4216  141.6116  154.9518 C.ar    1  UNL1        0.1401
     16 F         148.4455  141.2451  153.9188 F       1  UNL1       -0.2042
     17 C         147.8291  142.3875  156.1693 C.ar    1  UNL1        0.0293
     18 C         146.8052  142.7540  157.2024 C.ar    1  UNL1       -0.0020
     19 C         137.7068  143.8633  163.0610 C.3     1  UNL1        0.0298
     20 C         138.7798  144.2240  164.0451 C.3     1  UNL1        0.0961
     21 C         139.4896  144.6481  165.1122 C.3     1  UNL1        0.0298
     22 O         137.7363  144.7249  164.9992 O.3     1  UNL1       -0.3863
     23 H         138.1656  145.0528  165.8049 H       1  UNL1        0.2102
     24 C         139.8460  142.5240  163.9917 C.2     1  UNL1        0.2240
     25 O         138.5587  141.9254  164.4762 O.2     1  UNL1       -0.2750
     26 N         141.1560  141.9234  164.4081 N.am    1  UNL1       -0.3004
     27 H         142.0008  142.3163  164.0901 H       1  UNL1        0.1497
     28 C         141.1787  140.7243  165.3089 C.3     1  UNL1        0.1163
     29 C         141.3627  140.9000  166.7872 C.ar    1  UNL1       -0.0027
     30 C         140.9276  142.1728  167.4510 C.ar    1  UNL1        0.0012
     31 C         141.1116  142.3485  168.9292 C.ar    1  UNL1        0.0711
     32 C         141.7306  141.2515  169.7436 C.ar    1  UNL1        0.0077
     33 C         142.1657  139.9787  169.0798 C.ar    1  UNL1        0.0711
     34 C         141.9817  139.8030  167.6016 C.ar    1  UNL1        0.0012
     35 C         140.6766  143.6214  169.5931 C.3     1  UNL1        0.4186
     36 F         140.2416  144.8941  170.2571 F       1  UNL1       -0.1659
     37 F         141.4719  143.2576  170.8117 F       1  UNL1       -0.1659
     38 F         139.8812  143.9852  168.3746 F       1  UNL1       -0.1659
     39 C         142.7847  138.8816  169.8942 C.3     1  UNL1        0.4186
     40 F         143.4037  137.7846  170.7086 F       1  UNL1       -0.1659
     41 F         142.9911  138.0729  168.6479 F       1  UNL1       -0.1659
     42 F         142.5782  139.6903  171.1405 F       1  UNL1       -0.1659
@<TRIPOS>BOND
     1    19    20    1
     2    20    21    1
     3    20    22    1
     4     1    20    1
     5     1    24    1
     6    24    25    2
     7    24    26   am
     8    26    28    1
     9    28    29    1
    10    29    30   ar
    11    30    31   ar
    12    31    35    1
    13    35    36    1
    14    35    37    1
    15    35    38    1
    16    31    32   ar
    17    32    33   ar
    18    33    39    1
    19    39    40    1
    20    39    41    1
    21    39    42    1
    22    33    34   ar
    23     1     2    1
    24     2     3    1
    25     3     4    1
    26     4     6    1
    27     6     7    1
    28     7     8    1
    29     8     9    1
    30     9    12    1
    31    12    13   ar
    32    13    14   ar
    33    14    15   ar
    34    15    16    1
    35    15    17   ar
    36    17    18   ar
    37     9    10    1
    38    10    11    1
    39     4     5    1
    40     5     1    1
    41    34    29   ar
    42    11     6    1
    43    18    12   ar
    44    22    23    1
    45    26    27    1
@<TRIPOS>MOLECULE
*****
 42 45 0 0 0
SMALL
GASTEIGER

@<TRIPOS>ATOM
      1 C         139.9221  143.6423  162.7707 C.3     1  UNL1        0.0925
      2 C         139.6606  144.9581  162.0997 C.3     1  UNL1        0.0123
      3 C         140.5066  145.0239  160.8628 C.3     1  UNL1        0.0165
      4 C         141.2910  143.7488  160.7693 C.3     1  UNL1        0.0581
      5 C         140.9297  142.8949  161.9485 C.3     1  UNL1        0.0268
      6 N         142.2655  143.3904  159.6868 N.3     1  UNL1       -0.2739
      7 C         141.9701  143.7528  158.2616 C.3     1  UNL1        0.0724
      8 C         142.9446  143.3945  157.1791 C.3     1  UNL1        0.0217
      9 C         144.2147  142.6737  157.5218 C.3     1  UNL1        0.0251
     10 C         144.5101  142.3113  158.9471 C.3     1  UNL1        0.0217
     11 C         143.5356  142.6697  160.0296 C.3     1  UNL1        0.0724
     12 C         145.1892  142.3153  156.4393 C.ar    1  UNL1       -0.0223
     13 C         144.6895  141.9125  155.0836 C.ar    1  UNL1       -0.0020
     14 C         145.6640  141.5541  154.0010 C.ar    1  UNL1        0.0293
     15 C         147.1382  141.5986  154.2742 C.ar    1  UNL1        0.1401
     16 F         148.1128  141.2403  153.1918 F       1  UNL1       -0.2042
     17 C         147.6380  142.0016  155.6300 C.ar    1  UNL1        0.0293
     18 C         146.6634  142.3599  156.7125 C.ar    1  UNL1       -0.0020
     19 C         140.0421  144.4527  164.7274 C.3     1  UNL1        0.0298
     20 C         138.9255  144.1362  163.7771 C.3     1  UNL1        0.0961
     21 C         137.7334  143.9674  163.1666 C.3     1  UNL1        0.0298
     22 O         137.9290  144.6302  164.7837 O.3     1  UNL1       -0.3863
     23 H         137.0334  144.5437  164.4213 H       1  UNL1        0.2102
     24 C         139.9752  142.4298  163.6520 C.2     1  UNL1        0.2240
     25 O         138.7036  141.7831  164.1155 O.2     1  UNL1       -0.2750
     26 N         141.3000  141.8638  164.0699 N.am    1  UNL1       -0.3004
     27 H         142.1346  142.2881  163.7657 H       1  UNL1        0.1497
     28 C         141.3532  140.6512  164.9513 C.3     1  UNL1        0.1163
     29 C         141.3097  140.8056  166.4427 C.ar    1  UNL1       -0.0027
     30 C         140.0817  140.4008  167.2031 C.ar    1  UNL1        0.0012
     31 C         140.0382  140.5551  168.6945 C.ar    1  UNL1        0.0711
     32 C         141.2227  141.1143  169.4255 C.ar    1  UNL1        0.0077
     33 C         142.4507  141.5191  168.6651 C.ar    1  UNL1        0.0711
     34 C         142.4941  141.3647  167.1737 C.ar    1  UNL1        0.0012
     35 C         138.8102  140.1503  169.4550 C.3     1  UNL1        0.4186
     36 F         137.5823  139.7456  170.2154 F       1  UNL1       -0.1659
     37 F         139.3132  140.8885  170.6600 F       1  UNL1       -0.1659
     38 F         138.3073  139.4122  168.2499 F       1  UNL1       -0.1659
     39 C         143.6351  142.0782  169.3961 C.3     1  UNL1        0.4186
     40 F         144.8196  142.6374  170.1271 F       1  UNL1       -0.1659
     41 F         143.2136  141.3488  170.6371 F       1  UNL1       -0.1659
     42 F         144.0567  142.8076  168.1550 F       1  UNL1       -0.1659
@<TRIPOS>BOND
     1    19    20    1
     2    20    21    1
     3    20    22    1
     4     1    20    1
     5     1    24    1
     6    24    25    2
     7    24    26   am
     8    26    28    1
     9    28    29    1
    10    29    30   ar
    11    30    31   ar
    12    31    35    1
    13    35    36    1
    14    35    37    1
    15    35    38    1
    16    31    32   ar
    17    32    33   ar
    18    33    39    1
    19    39    40    1
    20    39    41    1
    21    39    42    1
    22    33    34   ar
    23     1     2    1
    24     2     3    1
    25     3     4    1
    26     4     6    1
    27     6     7    1
    28     7     8    1
    29     8     9    1
    30     9    12    1
    31    12    13   ar
    32    13    14   ar
    33    14    15   ar
    34    15    16    1
    35    15    17   ar
    36    17    18   ar
    37     9    10    1
    38    10    11    1
    39     4     5    1
    40     5     1    1
    41    34    29   ar
    42    11     6    1
    43    18    12   ar
    44    22    23    1
    45    26    27    1
@<TRIPOS>MOLECULE
*****
 42 45 0 0 0
SMALL
GASTEIGER

@<TRIPOS>ATOM
      1 C         143.3664  142.7427  162.7444 C.3     1  UNL1        0.0925
      2 C         144.6414  143.1108  162.0452 C.3     1  UNL1        0.0123
      3 C         144.7874  142.2192  160.8478 C.3     1  UNL1        0.0165
      4 C         143.6027  141.3001  160.8069 C.3     1  UNL1        0.0581
      5 C         142.7244  141.6237  161.9791 C.3     1  UNL1        0.0268
      6 N         143.3420  140.2431  159.7750 N.3     1  UNL1       -0.2739
      7 C         143.0439  138.8362  160.2012 C.3     1  UNL1        0.0724
      8 C         142.7832  137.7792  159.1694 C.3     1  UNL1        0.0217
      9 C         142.8206  138.1291  157.7112 C.3     1  UNL1        0.0251
     10 C         143.1187  139.5361  157.2850 C.3     1  UNL1        0.0217
     11 C         143.3794  140.5931  158.3169 C.3     1  UNL1        0.0724
     12 C         142.5599  137.0721  156.6794 C.ar    1  UNL1       -0.0223
     13 C         143.7082  136.3555  156.0330 C.ar    1  UNL1       -0.0020
     14 C         143.4475  135.2985  155.0012 C.ar    1  UNL1        0.0293
     15 C         142.0384  134.9580  154.6157 C.ar    1  UNL1        0.1401
     16 F         141.7777  133.9011  153.5839 F       1  UNL1       -0.2042
     17 C         140.8900  135.6746  155.2621 C.ar    1  UNL1        0.0293
     18 C         141.1507  136.7317  156.2939 C.ar    1  UNL1       -0.0020
     19 C         143.1760  144.8553  162.7681 C.3     1  UNL1        0.0298
     20 C         143.7589  143.8324  163.6975 C.3     1  UNL1        0.0961
     21 C         144.3535  143.1765  164.7167 C.3     1  UNL1        0.0298
     22 O         144.1515  144.9222  164.6506 O.3     1  UNL1       -0.3863
     23 H         144.5915  144.5334  165.4227 H       1  UNL1        0.2102
     24 C         142.1735  142.6024  163.6428 C.2     1  UNL1        0.2240
     25 O         141.3844  143.8158  164.0367 O.2     1  UNL1       -0.2750
     26 N         141.7696  141.2487  164.1474 N.am    1  UNL1       -0.3004
     27 H         142.2874  140.4524  163.8888 H       1  UNL1        0.1497
     28 C         140.5766  141.1085  165.0458 C.3     1  UNL1        0.1163
     29 C         140.7560  141.1018  166.5351 C.ar    1  UNL1       -0.0027
     30 C         142.0288  141.6160  167.1395 C.ar    1  UNL1        0.0012
     31 C         142.2081  141.6093  168.6287 C.ar    1  UNL1        0.0711
     32 C         141.1145  141.0884  169.5135 C.ar    1  UNL1        0.0077
     33 C         139.8417  140.5742  168.9090 C.ar    1  UNL1        0.0711
     34 C         139.6624  140.5809  167.4198 C.ar    1  UNL1        0.0012
     35 C         143.4810  142.1236  169.2333 C.3     1  UNL1        0.4186
     36 F         144.7538  142.6379  169.8377 F       1  UNL1       -0.1659
     37 F         143.8606  142.7323  167.9160 F       1  UNL1       -0.1659
     38 F         143.1013  141.5149  170.5506 F       1  UNL1       -0.1659
     39 C         138.7482  140.0532  169.7938 C.3     1  UNL1        0.4186
     40 F         137.6546  139.5323  170.6785 F       1  UNL1       -0.1659
     41 F         138.0147  139.5452  168.5880 F       1  UNL1       -0.1659
     42 F         139.4817  140.5613  170.9995 F       1  UNL1       -0.1659
@<TRIPOS>BOND
     1    19    20    1
     2    20    21    1
     3    20    22    1
     4     1    20    1
     5     1    24    1
     6    24    25    2
     7    24    26   am
     8    26    28    1
     9    28    29    1
    10    29    30   ar
    11    30    31   ar
    12    31    35    1
    13    35    36    1
    14    35    37    1
    15    35    38    1
    16    31    32   ar
    17    32    33   ar
    18    33    39    1
    19    39    40    1
    20    39    41    1
    21    39    42    1
    22    33    34   ar
    23     1     2    1
    24     2     3    1
    25     3     4    1
    26     4     6    1
    27     6     7    1
    28     7     8    1
    29     8     9    1
    30     9    12    1
    31    12    13   ar
    32    13    14   ar
    33    14    15   ar
    34    15    16    1
    35    15    17   ar
    36    17    18   ar
    37     9    10    1
    38    10    11    1
    39     4     5    1
    40     5     1    1
    41    34    29   ar
    42    11     6    1
    43    18    12   ar
    44    22    23    1
    45    26    27    1
