@<TRIPOS>MOLECULE
*****
 30 33 0 0 0
SMALL
GASTEIGER

@<TRIPOS>ATOM
      1 C         142.3753  143.3494  158.6840 C.2     1  UNL1        0.0596
      2 C         141.8524  142.4455  159.7610 C.2     1  UNL1        0.0324
      3 C         140.7607  142.9200  160.6737 C.2     1  UNL1        0.0889
      4 N         140.0499  142.2584  161.8170 N.2     1  UNL1       -0.2236
      5 C         139.0419  143.2277  162.3593 C.2     1  UNL1        0.1859
      6 N         139.1296  144.4884  161.5513 N.2     1  UNL1       -0.2387
      7 C         140.1920  144.2983  160.5095 C.3     1  UNL1        0.1679
      8 C         140.7149  145.2020  159.4326 C.2     1  UNL1        0.0164
      9 C         141.8065  144.7275  158.5199 C.2     1  UNL1        0.0690
     10 CL        142.3294  145.6314  157.4429 Cl      1  UNL1       -0.0812
     11 N         145.6504  141.9259  155.9458 N.3     1  UNL1       -0.2698
     12 C         145.9693  142.3094  157.3604 C.3     1  UNL1        0.0938
     13 C         144.8776  142.7838  158.2732 C.3     1  UNL1        0.1081
     14 N         143.4670  142.8749  157.7712 N.pl3   1  UNL1       -0.3040
     15 C         143.1481  142.4914  156.3566 C.3     1  UNL1        0.1081
     16 C         144.2398  142.0169  155.4439 C.3     1  UNL1        0.0938
     17 C         148.1784  141.6821  155.3985 C.3     1  UNL1        0.0188
     18 C         146.7420  141.4514  155.0330 C.3     1  UNL1        0.0722
     19 S         138.1097  142.9799  163.5081 S.3     1  UNL1       -0.0777
     20 C         138.2686  141.7493  164.3509 C.3     1  UNL1        0.0462
     21 C         137.3132  141.2343  163.3155 C.3     1  UNL1        0.0113
     22 C         139.1689  142.6917  165.0935 C.3     1  UNL1        0.0122
     23 C         139.8962  142.2246  166.3194 C.3     1  UNL1        0.0244
     24 C         139.7233  140.8151  166.8027 C.3     1  UNL1        0.1292
     25 C         138.8231  139.8728  166.0600 C.3     1  UNL1        0.0244
     26 C         138.0957  140.3398  164.8341 C.3     1  UNL1        0.0122
     27 S         140.4506  140.3480  168.0286 S.O2    1  UNL1       -0.0099
     28 C         141.1781  139.8810  169.2544 C.3     1  UNL1        0.1760
     29 O         139.2167  139.6286  168.4866 O.2     1  UNL1       -0.1730
     30 O         141.6846  141.0674  167.5704 O.2     1  UNL1       -0.1730
@<TRIPOS>BOND
     1    17    18    1
     2    18    11    1
     3    11    12    1
     4    12    13    1
     5    13    14    1
     6    14     1    1
     7     1     2    2
     8     2     3    1
     9     3     4    2
    10     4     5    1
    11     5    19    1
    12    19    20    1
    13    20    21    1
    14    20    22    1
    15    22    23    1
    16    23    24    1
    17    24    27    1
    18    27    28    1
    19    27    29    2
    20    27    30    2
    21    24    25    1
    22    25    26    1
    23     5     6    2
    24     6     7    1
    25     7     8    1
    26     8     9    2
    27     9    10    1
    28    14    15    1
    29    15    16    1
    30    16    11    1
    31     9     1    1
    32     7     3    1
    33    26    20    1
@<TRIPOS>MOLECULE
*****
 30 33 0 0 0
SMALL
GASTEIGER

@<TRIPOS>ATOM
      1 C         143.5572  140.7072  158.5761 C.2     1  UNL1        0.0596
      2 C         143.7578  139.5980  159.5658 C.2     1  UNL1        0.0324
      3 C         142.6665  139.2510  160.5347 C.2     1  UNL1        0.0889
      4 N         142.5767  138.2159  161.6166 N.2     1  UNL1       -0.2236
      5 C         141.2293  138.3382  162.2643 C.2     1  UNL1        0.1859
      6 N         140.4864  139.4489  161.5827 N.2     1  UNL1       -0.2387
      7 C         141.3747  140.0131  160.5137 C.3     1  UNL1        0.1679
      8 C         141.1742  141.1222  159.5240 C.2     1  UNL1        0.0164
      9 C         142.2655  141.4692  158.5552 C.2     1  UNL1        0.0690
     10 CL        142.0649  142.5784  157.5654 Cl      1  UNL1       -0.0812
     11 N         146.8311  141.7484  155.6695 N.3     1  UNL1       -0.2698
     12 C         146.6778  142.5327  156.9389 C.3     1  UNL1        0.0938
     13 C         145.5865  142.1856  157.9077 C.3     1  UNL1        0.1081
     14 N         144.6486  141.0543  157.6072 N.pl3   1  UNL1       -0.3040
     15 C         144.8019  140.2700  156.3378 C.3     1  UNL1        0.1081
     16 C         145.8932  140.6171  155.3690 C.3     1  UNL1        0.0938
     17 C         149.3568  141.8593  155.0705 C.3     1  UNL1        0.0188
     18 C         147.9224  142.0954  154.7007 C.3     1  UNL1        0.0722
     19 S         140.7150  137.4975  163.3951 S.3     1  UNL1       -0.0777
     20 C         139.8184  138.1043  164.4333 C.3     1  UNL1        0.0462
     21 C         138.7946  137.4411  163.5605 C.3     1  UNL1        0.0113
     22 C         141.1537  138.5568  164.9456 C.3     1  UNL1        0.0122
     23 C         141.2369  139.3857  166.1930 C.3     1  UNL1        0.0244
     24 C         139.9847  139.7622  166.9281 C.3     1  UNL1        0.1292
     25 C         138.6495  139.3097  166.4159 C.3     1  UNL1        0.0244
     26 C         138.5663  138.4807  165.1685 C.3     1  UNL1        0.0122
     27 S         140.0678  140.5911  168.1755 S.O2    1  UNL1       -0.0099
     28 C         140.1509  141.4200  169.4229 C.3     1  UNL1        0.1760
     29 O         141.1542  141.4177  167.5538 O.2     1  UNL1       -0.1730
     30 O         138.9814  139.7645  168.7972 O.2     1  UNL1       -0.1730
@<TRIPOS>BOND
     1    17    18    1
     2    18    11    1
     3    11    12    1
     4    12    13    1
     5    13    14    1
     6    14     1    1
     7     1     2    2
     8     2     3    1
     9     3     4    2
    10     4     5    1
    11     5    19    1
    12    19    20    1
    13    20    21    1
    14    20    22    1
    15    22    23    1
    16    23    24    1
    17    24    27    1
    18    27    28    1
    19    27    29    2
    20    27    30    2
    21    24    25    1
    22    25    26    1
    23     5     6    2
    24     6     7    1
    25     7     8    1
    26     8     9    2
    27     9    10    1
    28    14    15    1
    29    15    16    1
    30    16    11    1
    31     9     1    1
    32     7     3    1
    33    26    20    1
@<TRIPOS>MOLECULE
*****
 30 33 0 0 0
SMALL
GASTEIGER

@<TRIPOS>ATOM
      1 C         141.5849  139.3909  162.7935 C.2     1  UNL1        0.0596
      2 C         142.7055  139.2067  161.8134 C.2     1  UNL1        0.0324
      3 C         142.4046  138.8379  160.3909 C.2     1  UNL1        0.0889
      4 N         143.2939  138.5913  159.2084 N.2     1  UNL1       -0.2236
      5 C         142.4221  138.2543  158.0352 C.2     1  UNL1        0.1859
      6 N         140.9941  138.2926  158.4926 N.2     1  UNL1       -0.2387
      7 C         140.9832  138.6533  159.9485 C.3     1  UNL1        0.1679
      8 C         139.8628  138.8375  160.9286 C.2     1  UNL1        0.0164
      9 C         140.1637  139.2063  162.3511 C.2     1  UNL1        0.0690
     10 CL        139.0431  139.3905  163.3312 Cl      1  UNL1       -0.0812
     11 N         142.4875  140.4972  167.0610 N.3     1  UNL1       -0.2698
     12 C         142.4967  139.0571  166.6416 C.3     1  UNL1        0.0938
     13 C         142.1958  138.6883  165.2191 C.3     1  UNL1        0.1081
     14 N         141.8858  139.7597  164.2160 N.pl3   1  UNL1       -0.3040
     15 C         141.8767  141.1998  164.6355 C.3     1  UNL1        0.1081
     16 C         142.1775  141.5686  166.0580 C.3     1  UNL1        0.0938
     17 C         143.1725  142.2746  168.8278 C.3     1  UNL1        0.0188
     18 C         142.7884  140.8661  168.4834 C.3     1  UNL1        0.0722
     19 S         142.8953  137.9350  156.6480 S.3     1  UNL1       -0.0777
     20 C         142.2336  136.8415  155.8629 C.3     1  UNL1        0.0462
     21 C         141.6564  138.0426  155.1742 C.3     1  UNL1        0.0113
     22 C         143.0406  136.0202  156.8244 C.3     1  UNL1        0.0122
     23 C         142.9854  134.5226  156.7615 C.3     1  UNL1        0.0244
     24 C         142.1231  133.8462  155.7372 C.3     1  UNL1        0.1292
     25 C         141.3162  134.6675  154.7758 C.3     1  UNL1        0.0244
     26 C         141.3714  136.1652  154.8387 C.3     1  UNL1        0.0122
     27 S         142.0679  132.3485  155.6743 S.O2    1  UNL1       -0.0099
     28 C         142.0128  130.8508  155.6116 C.3     1  UNL1        0.1760
     29 O         141.5406  132.4268  154.2723 O.2     1  UNL1       -0.1730
     30 O         142.5953  132.2703  157.0764 O.2     1  UNL1       -0.1730
@<TRIPOS>BOND
     1    17    18    1
     2    18    11    1
     3    11    12    1
     4    12    13    1
     5    13    14    1
     6    14     1    1
     7     1     2    2
     8     2     3    1
     9     3     4    2
    10     4     5    1
    11     5    19    1
    12    19    20    1
    13    20    21    1
    14    20    22    1
    15    22    23    1
    16    23    24    1
    17    24    27    1
    18    27    28    1
    19    27    29    2
    20    27    30    2
    21    24    25    1
    22    25    26    1
    23     5     6    2
    24     6     7    1
    25     7     8    1
    26     8     9    2
    27     9    10    1
    28    14    15    1
    29    15    16    1
    30    16    11    1
    31     9     1    1
    32     7     3    1
    33    26    20    1
@<TRIPOS>MOLECULE
*****
 30 33 0 0 0
SMALL
GASTEIGER

@<TRIPOS>ATOM
      1 C         140.5262  139.1049  164.5836 C.2     1  UNL1        0.0596
      2 C         141.2266  139.7992  163.4533 C.2     1  UNL1        0.0324
      3 C         140.8860  139.4526  162.0342 C.2     1  UNL1        0.0889
      4 N         141.4053  139.9651  160.7236 N.2     1  UNL1       -0.2236
      5 C         140.6853  139.2410  159.6248 C.2     1  UNL1        0.1859
      6 N         139.7212  138.2810  160.2563 N.2     1  UNL1       -0.2387
      7 C         139.8452  138.4117  161.7454 C.3     1  UNL1        0.1679
      8 C         139.1449  137.7176  162.8758 C.2     1  UNL1        0.0164
      9 C         139.4854  138.0642  164.2949 C.2     1  UNL1        0.0690
     10 CL        138.7850  137.3699  165.4252 Cl      1  UNL1       -0.0812
     11 N         141.5476  140.1449  168.8411 N.3     1  UNL1       -0.2698
     12 C         140.1969  140.4906  168.2880 C.3     1  UNL1        0.0938
     13 C         139.8564  140.1439  166.8689 C.3     1  UNL1        0.1081
     14 N         140.8667  139.4516  166.0028 N.pl3   1  UNL1       -0.3040
     15 C         142.2175  139.1059  166.5559 C.3     1  UNL1        0.1081
     16 C         142.5579  139.4525  167.9750 C.3     1  UNL1        0.0938
     17 C         142.0245  141.9281  170.6693 C.3     1  UNL1        0.0188
     18 C         141.8882  140.4914  170.2602 C.3     1  UNL1        0.0722
     19 S         140.8931  139.4416  158.1529 S.3     1  UNL1       -0.0777
     20 C         140.7702  138.2793  157.2128 C.3     1  UNL1        0.0462
     21 C         139.5064  139.0163  156.8821 C.3     1  UNL1        0.0113
     22 C         142.0768  137.9459  157.8699 C.3     1  UNL1        0.0122
     23 C         142.8216  136.7061  157.4721 C.3     1  UNL1        0.0244
     24 C         142.2598  135.7997  156.4171 C.3     1  UNL1        0.1292
     25 C         140.9533  136.1331  155.7601 C.3     1  UNL1        0.0244
     26 C         140.2085  137.3729  156.1578 C.3     1  UNL1        0.0122
     27 S         143.0046  134.5599  156.0194 S.O2    1  UNL1       -0.0099
     28 C         143.7495  133.3202  155.6215 C.3     1  UNL1        0.1760
     29 O         143.1934  134.2093  157.4656 O.2     1  UNL1       -0.1730
     30 O         142.8158  134.9106  154.5732 O.2     1  UNL1       -0.1730
@<TRIPOS>BOND
     1    17    18    1
     2    18    11    1
     3    11    12    1
     4    12    13    1
     5    13    14    1
     6    14     1    1
     7     1     2    2
     8     2     3    1
     9     3     4    2
    10     4     5    1
    11     5    19    1
    12    19    20    1
    13    20    21    1
    14    20    22    1
    15    22    23    1
    16    23    24    1
    17    24    27    1
    18    27    28    1
    19    27    29    2
    20    27    30    2
    21    24    25    1
    22    25    26    1
    23     5     6    2
    24     6     7    1
    25     7     8    1
    26     8     9    2
    27     9    10    1
    28    14    15    1
    29    15    16    1
    30    16    11    1
    31     9     1    1
    32     7     3    1
    33    26    20    1
@<TRIPOS>MOLECULE
*****
 30 33 0 0 0
SMALL
GASTEIGER

@<TRIPOS>ATOM
      1 C         140.0949  142.6974  164.0838 C.2     1  UNL1        0.0596
      2 C         140.5178  141.9994  162.8252 C.2     1  UNL1        0.0324
      3 C         140.2727  142.6426  161.4924 C.2     1  UNL1        0.0889
      4 N         140.5768  142.1982  160.0924 N.2     1  UNL1       -0.2236
      5 C         140.0968  143.2645  159.1531 C.2     1  UNL1        0.1859
      6 N         139.4960  144.3680  159.9725 N.2     1  UNL1       -0.2387
      7 C         139.6048  143.9837  161.4183 C.3     1  UNL1        0.1679
      8 C         139.1819  144.6815  162.6770 C.2     1  UNL1        0.0164
      9 C         139.4269  144.0383  164.0097 C.2     1  UNL1        0.0690
     10 CL        139.0040  144.7362  165.2684 Cl      1  UNL1       -0.0812
     11 N         140.8300  140.7678  168.0822 N.3     1  UNL1       -0.2698
     12 C         139.6536  140.3478  167.2517 C.3     1  UNL1        0.0938
     13 C         139.4086  140.9910  165.9190 C.3     1  UNL1        0.1081
     14 N         140.3399  142.0541  165.4167 N.pl3   1  UNL1       -0.3040
     15 C         141.5163  142.4741  166.2471 C.3     1  UNL1        0.1081
     16 C         141.7614  141.8309  167.5799 C.3     1  UNL1        0.0938
     17 C         142.3074  139.2976  169.6333 C.3     1  UNL1        0.0188
     18 C         141.0751  140.1247  169.4149 C.3     1  UNL1        0.0722
     19 S         140.1994  143.2330  157.6569 S.3     1  UNL1       -0.0777
     20 C         138.9605  143.3367  156.8178 C.3     1  UNL1        0.0462
     21 C         139.5869  144.6672  156.5227 C.3     1  UNL1        0.0113
     22 C         138.7642  141.9701  157.4043 C.3     1  UNL1        0.0122
     23 C         137.5466  141.1692  157.0492 C.3     1  UNL1        0.0244
     24 C         136.5252  141.7350  156.1075 C.3     1  UNL1        0.1292
     25 C         136.7215  143.1016  155.5211 C.3     1  UNL1        0.0244
     26 C         137.9391  143.9024  155.8762 C.3     1  UNL1        0.0122
     27 S         135.3076  140.9342  155.7524 S.O2    1  UNL1       -0.0099
     28 C         134.0900  140.1333  155.3972 C.3     1  UNL1        0.1760
     29 O         135.4253  140.1821  157.0449 O.2     1  UNL1       -0.1730
     30 O         135.1900  141.6863  154.4599 O.2     1  UNL1       -0.1730
@<TRIPOS>BOND
     1    17    18    1
     2    18    11    1
     3    11    12    1
     4    12    13    1
     5    13    14    1
     6    14     1    1
     7     1     2    2
     8     2     3    1
     9     3     4    2
    10     4     5    1
    11     5    19    1
    12    19    20    1
    13    20    21    1
    14    20    22    1
    15    22    23    1
    16    23    24    1
    17    24    27    1
    18    27    28    1
    19    27    29    2
    20    27    30    2
    21    24    25    1
    22    25    26    1
    23     5     6    2
    24     6     7    1
    25     7     8    1
    26     8     9    2
    27     9    10    1
    28    14    15    1
    29    15    16    1
    30    16    11    1
    31     9     1    1
    32     7     3    1
    33    26    20    1
@<TRIPOS>MOLECULE
*****
 30 33 0 0 0
SMALL
GASTEIGER

@<TRIPOS>ATOM
      1 C         141.8055  142.4419  159.4542 C.2     1  UNL1        0.0596
      2 C         140.7556  141.7915  160.3057 C.2     1  UNL1        0.0324
      3 C         141.1421  140.7303  161.2928 C.2     1  UNL1        0.0889
      4 N         140.3341  139.9175  162.2604 N.2     1  UNL1       -0.2236
      5 C         141.2710  139.0043  162.9942 C.2     1  UNL1        0.1859
      6 N         142.6581  139.2529  162.4801 N.2     1  UNL1       -0.2387
      7 C         142.5784  140.3196  161.4285 C.3     1  UNL1        0.1679
      8 C         143.6282  140.9701  160.5771 C.2     1  UNL1        0.0164
      9 C         143.2416  142.0312  159.5900 C.2     1  UNL1        0.0690
     10 CL        144.2915  142.6817  158.7385 Cl      1  UNL1       -0.0812
     11 N         140.6459  145.6255  156.4927 N.3     1  UNL1       -0.2698
     12 C         140.6868  145.9435  157.9580 C.3     1  UNL1        0.0938
     13 C         141.0734  144.8823  158.9452 C.3     1  UNL1        0.1081
     14 N         141.4189  143.5032  158.4670 N.pl3   1  UNL1       -0.3040
     15 C         141.3779  143.1852  157.0017 C.3     1  UNL1        0.1081
     16 C         140.9914  144.2464  156.0145 C.3     1  UNL1        0.0938
     17 C         139.0880  147.5808  155.7856 C.3     1  UNL1        0.0188
     18 C         140.2594  146.6866  155.5055 C.3     1  UNL1        0.0722
     19 S         140.8881  138.0161  164.0557 S.3     1  UNL1       -0.0777
     20 C         139.9280  138.4122  165.1379 C.3     1  UNL1        0.0462
     21 C         139.0201  137.5894  164.2726 C.3     1  UNL1        0.0113
     22 C         141.1693  139.0975  165.6274 C.3     1  UNL1        0.0122
     23 C         141.1352  139.8930  166.8986 C.3     1  UNL1        0.0244
     24 C         139.8597  140.0034  167.6803 C.3     1  UNL1        0.1292
     25 C         138.6184  139.3182  167.1908 C.3     1  UNL1        0.0244
     26 C         138.6525  138.5226  165.9196 C.3     1  UNL1        0.0122
     27 S         139.8256  140.7990  168.9515 S.O2    1  UNL1       -0.0099
     28 C         139.7915  141.5945  170.2227 C.3     1  UNL1        0.1760
     29 O         140.7865  141.7868  168.3590 O.2     1  UNL1       -0.1730
     30 O         138.8648  139.8111  169.5439 O.2     1  UNL1       -0.1730
@<TRIPOS>BOND
     1    17    18    1
     2    18    11    1
     3    11    12    1
     4    12    13    1
     5    13    14    1
     6    14     1    1
     7     1     2    2
     8     2     3    1
     9     3     4    2
    10     4     5    1
    11     5    19    1
    12    19    20    1
    13    20    21    1
    14    20    22    1
    15    22    23    1
    16    23    24    1
    17    24    27    1
    18    27    28    1
    19    27    29    2
    20    27    30    2
    21    24    25    1
    22    25    26    1
    23     5     6    2
    24     6     7    1
    25     7     8    1
    26     8     9    2
    27     9    10    1
    28    14    15    1
    29    15    16    1
    30    16    11    1
    31     9     1    1
    32     7     3    1
    33    26    20    1
@<TRIPOS>MOLECULE
*****
 30 33 0 0 0
SMALL
GASTEIGER

@<TRIPOS>ATOM
      1 C         140.3583  143.8997  160.1615 C.2     1  UNL1        0.0596
      2 C         140.5854  142.4343  160.3878 C.2     1  UNL1        0.0324
      3 C         140.4100  141.8512  161.7586 C.2     1  UNL1        0.0889
      4 N         140.5628  140.4537  162.2819 N.2     1  UNL1       -0.2236
      5 C         140.2547  140.4722  163.7498 C.2     1  UNL1        0.1859
      6 N         139.9116  141.8811  164.1337 N.2     1  UNL1       -0.2387
      7 C         140.0076  142.7333  162.9031 C.3     1  UNL1        0.1679
      8 C         139.7805  144.1986  162.6768 C.2     1  UNL1        0.0164
      9 C         139.9559  144.7818  161.3060 C.2     1  UNL1        0.0690
     10 CL        139.7288  146.2472  161.0797 Cl      1  UNL1       -0.0812
     11 N         140.8844  145.6493  156.0490 N.3     1  UNL1       -0.2698
     12 C         139.6560  144.8519  156.3733 C.3     1  UNL1        0.0938
     13 C         139.4807  144.2687  157.7441 C.3     1  UNL1        0.1081
     14 N         140.5337  144.4830  158.7907 N.pl3   1  UNL1       -0.3040
     15 C         141.7621  145.2804  158.4664 C.3     1  UNL1        0.1081
     16 C         141.9374  145.8636  157.0956 C.3     1  UNL1        0.0938
     17 C         140.1669  147.3461  154.2171 C.3     1  UNL1        0.0188
     18 C         141.0599  146.2325  154.6783 C.3     1  UNL1        0.0722
     19 S         140.2846  139.2895  164.6719 S.3     1  UNL1       -0.0777
     20 C         139.6704  139.3871  166.0369 C.3     1  UNL1        0.0462
     21 C         138.5023  138.8513  165.2635 C.3     1  UNL1        0.0113
     22 C         141.0519  139.8890  166.3364 C.3     1  UNL1        0.0122
     23 C         141.4136  140.3024  167.7322 C.3     1  UNL1        0.0244
     24 C         140.3937  140.2139  168.8286 C.3     1  UNL1        0.1292
     25 C         139.0123  139.7120  168.5292 C.3     1  UNL1        0.0244
     26 C         138.6506  139.2985  167.1333 C.3     1  UNL1        0.0122
     27 S         140.7554  140.6273  170.2244 S.O2    1  UNL1       -0.0099
     28 C         141.1170  141.0407  171.6203 C.3     1  UNL1        0.1760
     29 O         141.8847  141.4552  169.6866 O.2     1  UNL1       -0.1730
     30 O         139.6261  139.7994  170.7622 O.2     1  UNL1       -0.1730
@<TRIPOS>BOND
     1    17    18    1
     2    18    11    1
     3    11    12    1
     4    12    13    1
     5    13    14    1
     6    14     1    1
     7     1     2    2
     8     2     3    1
     9     3     4    2
    10     4     5    1
    11     5    19    1
    12    19    20    1
    13    20    21    1
    14    20    22    1
    15    22    23    1
    16    23    24    1
    17    24    27    1
    18    27    28    1
    19    27    29    2
    20    27    30    2
    21    24    25    1
    22    25    26    1
    23     5     6    2
    24     6     7    1
    25     7     8    1
    26     8     9    2
    27     9    10    1
    28    14    15    1
    29    15    16    1
    30    16    11    1
    31     9     1    1
    32     7     3    1
    33    26    20    1
@<TRIPOS>MOLECULE
*****
 30 33 0 0 0
SMALL
GASTEIGER

@<TRIPOS>ATOM
      1 C         142.0867  139.9006  159.7964 C.2     1  UNL1        0.0596
      2 C         143.1004  139.1930  158.9467 C.2     1  UNL1        0.0324
      3 C         142.6514  138.2156  157.9012 C.2     1  UNL1        0.0889
      4 N         143.4134  137.3738  156.9211 N.2     1  UNL1       -0.2236
      5 C         142.4218  136.5838  156.1194 C.2     1  UNL1        0.1859
      6 N         141.0470  136.9374  156.6041 N.2     1  UNL1       -0.2387
      7 C         141.1889  137.9460  157.7053 C.3     1  UNL1        0.1679
      8 C         140.1753  138.6536  158.5549 C.2     1  UNL1        0.0164
      9 C         140.6243  139.6310  159.6005 C.2     1  UNL1        0.0690
     10 CL        139.6107  140.3386  160.4502 Cl      1  UNL1       -0.0812
     11 N         143.4336  142.8326  162.9333 N.3     1  UNL1       -0.2698
     12 C         143.2659  141.3838  163.2836 C.3     1  UNL1        0.0938
     13 C         142.8169  140.4065  162.2380 C.3     1  UNL1        0.1081
     14 N         142.5357  140.8780  160.8421 N.pl3   1  UNL1       -0.3040
     15 C         142.7035  142.3268  160.4917 C.3     1  UNL1        0.1081
     16 C         143.1525  143.3041  161.5373 C.3     1  UNL1        0.0938
     17 C         143.5250  145.2612  163.8517 C.3     1  UNL1        0.0188
     18 C         143.8826  143.8100  163.9788 C.3     1  UNL1        0.0722
     19 S         142.7477  135.6110  155.0252 S.3     1  UNL1       -0.0777
     20 C         142.4523  134.1516  155.2065 C.3     1  UNL1        0.0462
     21 C         141.3756  134.5156  154.2275 C.3     1  UNL1        0.0113
     22 C         143.6315  134.2944  156.1225 C.3     1  UNL1        0.0122
     23 C         144.1414  133.1043  156.8799 C.3     1  UNL1        0.0244
     24 C         143.4721  131.7713  156.7212 C.3     1  UNL1        0.1292
     25 C         142.2929  131.6285  155.8052 C.3     1  UNL1        0.0244
     26 C         141.7829  132.8186  155.0479 C.3     1  UNL1        0.0122
     27 S         143.9820  130.5812  157.4786 S.O2    1  UNL1       -0.0099
     28 C         144.4918  129.3910  158.2359 C.3     1  UNL1        0.1760
     29 O         145.0074  131.4469  158.1487 O.2     1  UNL1       -0.1730
     30 O         142.9565  129.7155  156.8085 O.2     1  UNL1       -0.1730
@<TRIPOS>BOND
     1    17    18    1
     2    18    11    1
     3    11    12    1
     4    12    13    1
     5    13    14    1
     6    14     1    1
     7     1     2    2
     8     2     3    1
     9     3     4    2
    10     4     5    1
    11     5    19    1
    12    19    20    1
    13    20    21    1
    14    20    22    1
    15    22    23    1
    16    23    24    1
    17    24    27    1
    18    27    28    1
    19    27    29    2
    20    27    30    2
    21    24    25    1
    22    25    26    1
    23     5     6    2
    24     6     7    1
    25     7     8    1
    26     8     9    2
    27     9    10    1
    28    14    15    1
    29    15    16    1
    30    16    11    1
    31     9     1    1
    32     7     3    1
    33    26    20    1
@<TRIPOS>MOLECULE
*****
 30 33 0 0 0
SMALL
GASTEIGER

@<TRIPOS>ATOM
      1 C         140.4010  139.2278  161.5336 C.2     1  UNL1        0.0596
      2 C         141.7467  138.9234  160.9448 C.2     1  UNL1        0.0324
      3 C         141.8630  138.5360  159.5004 C.2     1  UNL1        0.0889
      4 N         143.0457  138.1818  158.6484 N.2     1  UNL1       -0.2236
      5 C         142.5473  137.8799  157.2662 C.2     1  UNL1        0.1859
      6 N         141.0567  138.0475  157.2639 N.2     1  UNL1       -0.2387
      7 C         140.6338  138.4530  158.6447 C.3     1  UNL1        0.1679
      8 C         139.2882  138.7574  159.2335 C.2     1  UNL1        0.0164
      9 C         139.1719  139.1448  160.6780 C.2     1  UNL1        0.0690
     10 CL        137.8262  139.4492  161.2667 Cl      1  UNL1       -0.0812
     11 N         140.0519  140.3900  165.8669 N.3     1  UNL1       -0.2698
     12 C         140.1939  141.4501  164.8152 C.3     1  UNL1        0.0938
     13 C         140.3103  141.0627  163.3708 C.3     1  UNL1        0.1081
     14 N         140.2846  139.6152  162.9781 N.pl3   1  UNL1       -0.3040
     15 C         140.1426  138.5552  164.0298 C.3     1  UNL1        0.1081
     16 C         140.0262  138.9426  165.4742 C.3     1  UNL1        0.0938
     17 C         140.6004  139.9446  168.3670 C.3     1  UNL1        0.0188
     18 C         139.9355  140.7773  167.3113 C.3     1  UNL1        0.0722
     19 S         143.3914  137.4805  156.0923 S.3     1  UNL1       -0.0777
     20 C         143.0196  136.2786  155.2755 C.3     1  UNL1        0.0462
     21 C         142.6887  137.3690  154.3000 C.3     1  UNL1        0.0113
     22 C         143.4796  135.6057  156.5347 C.3     1  UNL1        0.0122
     23 C         143.4529  134.1095  156.6384 C.3     1  UNL1        0.0244
     24 C         142.9661  133.2862  155.4827 C.3     1  UNL1        0.1292
     25 C         142.5061  133.9592  154.2236 C.3     1  UNL1        0.0244
     26 C         142.5329  135.4554  154.1199 C.3     1  UNL1        0.0122
     27 S         142.9394  131.7901  155.5864 S.O2    1  UNL1       -0.0099
     28 C         142.9127  130.2939  155.6902 C.3     1  UNL1        0.1760
     29 O         143.2835  131.6830  154.1303 O.2     1  UNL1       -0.1730
     30 O         142.5953  131.8972  157.0425 O.2     1  UNL1       -0.1730
@<TRIPOS>BOND
     1    17    18    1
     2    18    11    1
     3    11    12    1
     4    12    13    1
     5    13    14    1
     6    14     1    1
     7     1     2    2
     8     2     3    1
     9     3     4    2
    10     4     5    1
    11     5    19    1
    12    19    20    1
    13    20    21    1
    14    20    22    1
    15    22    23    1
    16    23    24    1
    17    24    27    1
    18    27    28    1
    19    27    29    2
    20    27    30    2
    21    24    25    1
    22    25    26    1
    23     5     6    2
    24     6     7    1
    25     7     8    1
    26     8     9    2
    27     9    10    1
    28    14    15    1
    29    15    16    1
    30    16    11    1
    31     9     1    1
    32     7     3    1
    33    26    20    1
