@<TRIPOS>MOLECULE
*****
 30 32 0 0 0
SMALL
GASTEIGER

@<TRIPOS>ATOM
      1 C1        140.8583  141.3587  164.8223 C.3     1  <1>         0.0953
      2 C2        142.3814  141.8155  170.6078 C.3     1  <1>         0.0307
      3 C3        142.0006  141.7013  169.1614 C.ar    1  <1>        -0.0258
      4 C4        142.6268  140.6431  168.3023 C.ar    1  <1>        -0.0048
      5 C5        142.2460  140.5289  166.8559 C.ar    1  <1>        -0.0032
      6 C6        141.2391  141.4729  166.2687 C.ar    1  <1>        -0.0063
      7 C7        140.6129  142.5311  167.1278 C.ar    1  <1>        -0.0074
      8 C8        140.9936  142.6453  168.5742 C.ar    1  <1>        -0.0261
      9 C9        140.3674  143.7035  169.4333 C.3     1  <1>         0.0307
     10 C10       141.6628  142.5865  164.5136 C.ar    1  <1>        -0.0060
     11 C11       143.1588  142.5044  164.4416 C.ar    1  <1>        -0.0029
     12 C12       143.9633  143.7322  164.1329 C.ar    1  <1>        -0.0003
     13 C13       143.2718  145.0421  163.8961 C.ar    1  <1>        -0.0000
     14 C14       141.7758  145.1241  163.9681 C.ar    1  <1>        -0.0003
     15 C15       140.9713  143.8963  164.2768 C.ar    1  <1>        -0.0029
     16 C16       140.0538  140.1309  165.1310 C.ar    1  <1>        -0.0060
     17 C17       140.4459  138.8091  164.5402 C.ar    1  <1>        -0.0029
     18 C18       139.6414  137.5813  164.8490 C.ar    1  <1>        -0.0003
     19 C19       138.4448  137.6753  165.7485 C.ar    1  <1>        -0.0000
     20 C20       138.0527  138.9971  166.3393 C.ar    1  <1>        -0.0003
     21 C21       138.8572  140.2249  166.0306 C.ar    1  <1>        -0.0029
     22 S1        140.4775  141.2445  163.3759 S.3     1  <1>        -0.1276
     23 C22       139.2197  141.8925  162.8781 C.3     1  <1>         0.0796
     24 C23       138.0249  141.0506  162.5412 C.3     1  <1>         0.0988
     25 N1        136.6995  141.3390  163.1816 N.3     1  <1>        -0.3172
     26 H1        136.0052  140.6743  162.8403 H       1  <1>         0.1192
     27 H2        136.4071  142.2873  162.9457 H       1  <1>         0.1192
     28 C24       138.1555  139.9202  161.5638 C.2     1  <1>         0.0652
     29 O1        137.7893  138.5255  161.9769 O.co2   1  <1>        -0.5478
     30 O2        138.6522  140.1846  160.1734 O.co2   1  <1>        -0.5478
@<TRIPOS>UNITY_ATOM_ATTR
29 1
charge -1
@<TRIPOS>BOND
     1     2     3    1
     2     3     4   ar
     3     4     5   ar
     4     5     6   ar
     5     6     1    1
     6     1    22    1
     7    22    23    1
     8    23    24    1
     9    24    25    1
    10    24    28    1
    11    28    29   ar
    12    28    30   ar
    13     1    10    1
    14    10    11   ar
    15    11    12   ar
    16    12    13   ar
    17    13    14   ar
    18    14    15   ar
    19     1    16    1
    20    16    17   ar
    21    17    18   ar
    22    18    19   ar
    23    19    20   ar
    24    20    21   ar
    25     6     7   ar
    26     7     8   ar
    27     8     9    1
    28     8     3   ar
    29    15    10   ar
    30    21    16   ar
    31    25    26    1
    32    25    27    1
@<TRIPOS>MOLECULE
*****
 30 32 0 0 0
SMALL
GASTEIGER

@<TRIPOS>ATOM
      1 C1        140.8795  141.3679  164.8125 C.3     1  <1>         0.0953
      2 C2        142.3732  141.8347  170.6049 C.3     1  <1>         0.0307
      3 C3        141.9998  141.7180  169.1568 C.ar    1  <1>        -0.0258
      4 C4        142.6396  140.6664  168.2996 C.ar    1  <1>        -0.0048
      5 C5        142.2662  140.5497  166.8515 C.ar    1  <1>        -0.0032
      6 C6        141.2529  141.4846  166.2606 C.ar    1  <1>        -0.0063
      7 C7        140.6131  142.5362  167.1178 C.ar    1  <1>        -0.0074
      8 C8        140.9865  142.6529  168.5658 C.ar    1  <1>        -0.0261
      9 C9        140.3466  143.7045  169.4230 C.3     1  <1>         0.0307
     10 C10       140.0729  140.1411  165.1194 C.ar    1  <1>        -0.0060
     11 C11       140.4616  138.8199  164.5251 C.ar    1  <1>        -0.0029
     12 C12       139.6550  137.5930  164.8319 C.ar    1  <1>        -0.0003
     13 C13       138.4596  137.6874  165.7331 C.ar    1  <1>        -0.0000
     14 C14       138.0709  139.0086  166.3274 C.ar    1  <1>        -0.0003
     15 C15       138.8775  140.2354  166.0206 C.ar    1  <1>        -0.0029
     16 C16       141.6861  142.5948  164.5057 C.ar    1  <1>        -0.0060
     17 C17       143.1816  142.5089  164.4271 C.ar    1  <1>        -0.0029
     18 C18       143.9882  143.7357  164.1202 C.ar    1  <1>        -0.0003
     19 C19       143.2994  145.0485  163.8919 C.ar    1  <1>        -0.0000
     20 C20       141.8040  145.1344  163.9705 C.ar    1  <1>        -0.0003
     21 C21       140.9973  143.9075  164.2774 C.ar    1  <1>        -0.0029
     22 S1        140.5061  141.2512  163.3644 S.3     1  <1>        -0.1276
     23 C22       139.2398  141.8800  162.8634 C.3     1  <1>         0.0796
     24 C23       138.0581  141.0201  162.5255 C.3     1  <1>         0.0988
     25 N1        136.7154  141.3227  163.1216 N.3     1  <1>        -0.3172
     26 H1        136.0332  140.6427  162.7859 H       1  <1>         0.1192
     27 H2        136.4245  142.2607  162.8458 H       1  <1>         0.1192
     28 C24       138.2192  139.8575  161.5914 C.2     1  <1>         0.0652
     29 O1        138.8501  140.0586  160.2455 O.co2   1  <1>        -0.5478
     30 O2        137.7494  138.4938  162.0033 O.co2   1  <1>        -0.5478
@<TRIPOS>UNITY_ATOM_ATTR
29 1
charge -1
@<TRIPOS>BOND
     1     2     3    1
     2     3     4   ar
     3     4     5   ar
     4     5     6   ar
     5     6     1    1
     6     1    22    1
     7    22    23    1
     8    23    24    1
     9    24    25    1
    10    24    28    1
    11    28    29   ar
    12    28    30   ar
    13     1    10    1
    14    10    11   ar
    15    11    12   ar
    16    12    13   ar
    17    13    14   ar
    18    14    15   ar
    19     1    16    1
    20    16    17   ar
    21    17    18   ar
    22    18    19   ar
    23    19    20   ar
    24    20    21   ar
    25     6     7   ar
    26     7     8   ar
    27     8     9    1
    28     8     3   ar
    29    15    10   ar
    30    21    16   ar
    31    25    26    1
    32    25    27    1
@<TRIPOS>MOLECULE
*****
 30 32 0 0 0
SMALL
GASTEIGER

@<TRIPOS>ATOM
      1 C1        140.8658  141.4673  164.7147 C.3     1  <1>         0.0953
      2 C2        142.4380  141.7518  170.4981 C.3     1  <1>         0.0307
      3 C3        142.0449  141.6807  169.0523 C.ar    1  <1>        -0.0258
      4 C4        142.6832  140.6660  168.1506 C.ar    1  <1>        -0.0048
      5 C5        142.2901  140.5949  166.7047 C.ar    1  <1>        -0.0032
      6 C6        141.2589  141.5384  166.1606 C.ar    1  <1>        -0.0063
      7 C7        140.6207  142.5531  167.0622 C.ar    1  <1>        -0.0074
      8 C8        141.0137  142.6242  168.5081 C.ar    1  <1>        -0.0261
      9 C9        140.3754  143.6390  169.4097 C.3     1  <1>         0.0307
     10 C10       141.6142  142.7397  164.4487 C.ar    1  <1>        -0.0060
     11 C11       143.1106  142.7650  164.5499 C.ar    1  <1>        -0.0029
     12 C12       143.8589  144.0374  164.2839 C.ar    1  <1>        -0.0003
     13 C13       143.1110  145.2847  163.9166 C.ar    1  <1>        -0.0000
     14 C14       141.6146  145.2594  163.8154 C.ar    1  <1>        -0.0003
     15 C15       140.8663  143.9870  164.0814 C.ar    1  <1>        -0.0029
     16 C16       140.1175  140.1948  164.9808 C.ar    1  <1>        -0.0060
     17 C17       138.8841  140.2145  165.8342 C.ar    1  <1>        -0.0029
     18 C18       138.1357  138.9420  166.1002 C.ar    1  <1>        -0.0003
     19 C19       138.6207  137.6499  165.5128 C.ar    1  <1>        -0.0000
     20 C20       139.8541  137.6302  164.6594 C.ar    1  <1>        -0.0003
     21 C21       140.6025  138.9026  164.3934 C.ar    1  <1>        -0.0029
     22 S1        140.4728  141.3961  163.2689 S.3     1  <1>        -0.1276
     23 C22       139.1324  140.8451  162.8823 C.3     1  <1>         0.0796
     24 C23       137.9706  141.7720  162.6794 C.3     1  <1>         0.0988
     25 N1        136.6373  141.4472  163.2849 N.3     1  <1>        -0.3172
     26 H1        135.9686  142.1800  163.0478 H       1  <1>         0.1192
     27 H2        136.7300  141.3866  164.2989 H       1  <1>         0.1192
     28 C24       138.1422  143.0239  161.8709 C.2     1  <1>         0.0652
     29 O1        138.5928  142.9385  160.4428 O.co2   1  <1>        -0.5478
     30 O2        137.8632  144.3611  162.4907 O.co2   1  <1>        -0.5478
@<TRIPOS>UNITY_ATOM_ATTR
29 1
charge -1
@<TRIPOS>BOND
     1     2     3    1
     2     3     4   ar
     3     4     5   ar
     4     5     6   ar
     5     6     1    1
     6     1    22    1
     7    22    23    1
     8    23    24    1
     9    24    25    1
    10    24    28    1
    11    28    29   ar
    12    28    30   ar
    13     1    10    1
    14    10    11   ar
    15    11    12   ar
    16    12    13   ar
    17    13    14   ar
    18    14    15   ar
    19     1    16    1
    20    16    17   ar
    21    17    18   ar
    22    18    19   ar
    23    19    20   ar
    24    20    21   ar
    25     6     7   ar
    26     7     8   ar
    27     8     9    1
    28     8     3   ar
    29    15    10   ar
    30    21    16   ar
    31    25    26    1
    32    25    27    1
@<TRIPOS>MOLECULE
*****
 30 32 0 0 0
SMALL
GASTEIGER

@<TRIPOS>ATOM
      1 C1        141.5273  142.4669  164.2080 C.3     1  <1>         0.0953
      2 C2        140.9582  140.0915  169.6883 C.3     1  <1>         0.0307
      3 C3        141.1005  140.6853  168.3182 C.ar    1  <1>        -0.0258
      4 C4        140.1793  140.2556  167.2152 C.ar    1  <1>        -0.0048
      5 C5        140.3216  140.8494  165.8451 C.ar    1  <1>        -0.0032
      6 C6        141.3850  141.8730  165.5781 C.ar    1  <1>        -0.0063
      7 C7        142.3062  142.3028  166.6812 C.ar    1  <1>        -0.0074
      8 C8        142.1639  141.7089  168.0512 C.ar    1  <1>        -0.0261
      9 C9        143.0851  142.1387  169.1543 C.3     1  <1>         0.0307
     10 C10       140.1598  143.0714  164.3280 C.ar    1  <1>        -0.0060
     11 C11       139.0411  142.5738  163.4615 C.ar    1  <1>        -0.0029
     12 C12       137.6736  143.1783  163.5815 C.ar    1  <1>        -0.0003
     13 C13       137.4247  144.2804  164.5680 C.ar    1  <1>        -0.0000
     14 C14       138.5434  144.7780  165.4346 C.ar    1  <1>        -0.0003
     15 C15       139.9109  144.1735  165.3146 C.ar    1  <1>        -0.0029
     16 C16       142.8949  141.8624  164.0880 C.ar    1  <1>        -0.0060
     17 C17       144.1123  142.7233  164.2503 C.ar    1  <1>        -0.0029
     18 C18       145.4799  142.1188  164.1303 C.ar    1  <1>        -0.0003
     19 C19       145.6299  140.6533  163.8480 C.ar    1  <1>        -0.0000
     20 C20       144.4124  139.7923  163.6857 C.ar    1  <1>        -0.0003
     21 C21       143.0449  140.3969  163.8057 C.ar    1  <1>        -0.0029
     22 S1        141.6696  143.0607  162.8380 S.3     1  <1>        -0.1276
     23 C22       141.8947  144.5352  162.6793 C.3     1  <1>         0.0796
     24 C23       140.9840  145.3429  161.8028 C.3     1  <1>         0.0988
     25 N1        140.2715  146.5387  162.3615 N.3     1  <1>        -0.3172
     26 H1        139.6995  146.9651  161.6324 H       1  <1>         0.1192
     27 H2        140.9561  147.2166  162.6965 H       1  <1>         0.1192
     28 C24       140.7859  144.9546  160.3674 C.2     1  <1>         0.0652
     29 O1        141.8610  145.2343  159.3596 O.co2   1  <1>        -0.5478
     30 O2        139.5126  144.2867  159.9401 O.co2   1  <1>        -0.5478
@<TRIPOS>UNITY_ATOM_ATTR
29 1
charge -1
@<TRIPOS>BOND
     1     2     3    1
     2     3     4   ar
     3     4     5   ar
     4     5     6   ar
     5     6     1    1
     6     1    22    1
     7    22    23    1
     8    23    24    1
     9    24    25    1
    10    24    28    1
    11    28    29   ar
    12    28    30   ar
    13     1    10    1
    14    10    11   ar
    15    11    12   ar
    16    12    13   ar
    17    13    14   ar
    18    14    15   ar
    19     1    16    1
    20    16    17   ar
    21    17    18   ar
    22    18    19   ar
    23    19    20   ar
    24    20    21   ar
    25     6     7   ar
    26     7     8   ar
    27     8     9    1
    28     8     3   ar
    29    15    10   ar
    30    21    16   ar
    31    25    26    1
    32    25    27    1
@<TRIPOS>MOLECULE
*****
 30 32 0 0 0
SMALL
GASTEIGER

@<TRIPOS>ATOM
      1 C1        141.4020  142.0506  164.4341 C.3     1  <1>         0.0953
      2 C2        140.9017  140.4272  170.1886 C.3     1  <1>         0.0307
      3 C3        141.0268  140.8330  168.7500 C.ar    1  <1>        -0.0258
      4 C4        140.0527  140.3107  167.7360 C.ar    1  <1>        -0.0048
      5 C5        140.1778  140.7165  166.2973 C.ar    1  <1>        -0.0032
      6 C6        141.2769  141.6448  165.8727 C.ar    1  <1>        -0.0063
      7 C7        142.2509  142.1671  166.8868 C.ar    1  <1>        -0.0074
      8 C8        142.1259  141.7612  168.3254 C.ar    1  <1>        -0.0261
      9 C9        143.1000  142.2837  169.3395 C.3     1  <1>         0.0307
     10 C10       142.7090  141.3205  164.3418 C.ar    1  <1>        -0.0060
     11 C11       143.9942  142.0901  164.2653 C.ar    1  <1>        -0.0029
     12 C12       145.3013  141.3600  164.1730 C.ar    1  <1>        -0.0003
     13 C13       145.3231  139.8602  164.1571 C.ar    1  <1>        -0.0000
     14 C14       144.0379  139.0906  164.2335 C.ar    1  <1>        -0.0003
     15 C15       142.7309  139.8208  164.3259 C.ar    1  <1>        -0.0029
     16 C16       140.0949  142.7807  164.5265 C.ar    1  <1>        -0.0060
     17 C17       140.0096  144.0732  165.2829 C.ar    1  <1>        -0.0029
     18 C18       138.7026  144.8033  165.3752 C.ar    1  <1>        -0.0003
     19 C19       137.4808  144.2410  164.7112 C.ar    1  <1>        -0.0000
     20 C20       137.5661  142.9485  163.9548 C.ar    1  <1>        -0.0003
     21 C21       138.8731  142.2184  163.8624 C.ar    1  <1>        -0.0029
     22 S1        141.5270  142.4565  162.9955 S.3     1  <1>        -0.1276
     23 C22       141.8168  143.8850  162.6417 C.3     1  <1>         0.0796
     24 C23       141.2187  144.4876  161.4052 C.3     1  <1>         0.0988
     25 N1        142.1091  144.9526  160.2912 N.3     1  <1>        -0.3172
     26 H1        141.5385  145.3320  159.5357 H       1  <1>         0.1192
     27 H2        142.6560  144.1655  159.9420 H       1  <1>         0.1192
     28 C24       139.7300  144.6253  161.2826 C.2     1  <1>         0.0652
     29 O1        138.9473  143.6242  160.4858 O.co2   1  <1>        -0.5478
     30 O2        139.0241  145.7642  161.9569 O.co2   1  <1>        -0.5478
@<TRIPOS>UNITY_ATOM_ATTR
29 1
charge -1
@<TRIPOS>BOND
     1     2     3    1
     2     3     4   ar
     3     4     5   ar
     4     5     6   ar
     5     6     1    1
     6     1    22    1
     7    22    23    1
     8    23    24    1
     9    24    25    1
    10    24    28    1
    11    28    29   ar
    12    28    30   ar
    13     1    10    1
    14    10    11   ar
    15    11    12   ar
    16    12    13   ar
    17    13    14   ar
    18    14    15   ar
    19     1    16    1
    20    16    17   ar
    21    17    18   ar
    22    18    19   ar
    23    19    20   ar
    24    20    21   ar
    25     6     7   ar
    26     7     8   ar
    27     8     9    1
    28     8     3   ar
    29    15    10   ar
    30    21    16   ar
    31    25    26    1
    32    25    27    1
@<TRIPOS>MOLECULE
*****
 30 32 0 0 0
SMALL
GASTEIGER

@<TRIPOS>ATOM
      1 C1        141.4563  142.4389  164.0706 C.3     1  <1>         0.0953
      2 C2        140.4693  140.0547  169.4874 C.3     1  <1>         0.0307
      3 C3        140.7160  140.6508  168.1332 C.ar    1  <1>        -0.0258
      4 C4        141.8231  141.6445  167.9416 C.ar    1  <1>        -0.0048
      5 C5        142.0699  142.2406  166.5874 C.ar    1  <1>        -0.0032
      6 C6        141.2096  141.8429  165.4248 C.ar    1  <1>        -0.0063
      7 C7        140.1025  140.8491  165.6164 C.ar    1  <1>        -0.0074
      8 C8        139.8557  140.2530  166.9706 C.ar    1  <1>        -0.0261
      9 C9        138.7486  139.2592  167.1622 C.3     1  <1>         0.0307
     10 C10       140.0924  143.0627  164.0966 C.ar    1  <1>        -0.0060
     11 C11       139.0533  142.6356  163.1028 C.ar    1  <1>        -0.0029
     12 C12       137.6894  143.2594  163.1289 C.ar    1  <1>        -0.0003
     13 C13       137.3647  144.3103  164.1487 C.ar    1  <1>        -0.0000
     14 C14       138.4038  144.7374  165.1425 C.ar    1  <1>        -0.0003
     15 C15       139.7677  144.1136  165.1165 C.ar    1  <1>        -0.0029
     16 C16       142.8202  141.8151  164.0446 C.ar    1  <1>        -0.0060
     17 C17       144.0391  142.6687  164.2335 C.ar    1  <1>        -0.0029
     18 C18       145.4030  142.0449  164.2074 C.ar    1  <1>        -0.0003
     19 C19       145.5480  140.5675  163.9925 C.ar    1  <1>        -0.0000
     20 C20       144.3291  139.7139  163.8036 C.ar    1  <1>        -0.0003
     21 C21       142.9652  140.3377  163.8296 C.ar    1  <1>        -0.0029
     22 S1        141.7031  143.0350  162.7164 S.3     1  <1>        -0.1276
     23 C22       141.9476  144.5084  162.5788 C.3     1  <1>         0.0796
     24 C23       141.0231  145.3476  161.7474 C.3     1  <1>         0.0988
     25 N1        140.3142  146.5173  162.3631 N.3     1  <1>        -0.3172
     26 H1        139.7316  146.9707  161.6593 H       1  <1>         0.1192
     27 H2        141.0009  147.1835  162.7166 H       1  <1>         0.1192
     28 C24       140.8077  145.0171  160.3001 C.2     1  <1>         0.0652
     29 O1        139.5514  144.3203  159.8689 O.co2   1  <1>        -0.5478
     30 O2        141.8487  145.3834  159.2842 O.co2   1  <1>        -0.5478
@<TRIPOS>UNITY_ATOM_ATTR
29 1
charge -1
@<TRIPOS>BOND
     1     2     3    1
     2     3     4   ar
     3     4     5   ar
     4     5     6   ar
     5     6     1    1
     6     1    22    1
     7    22    23    1
     8    23    24    1
     9    24    25    1
    10    24    28    1
    11    28    29   ar
    12    28    30   ar
    13     1    10    1
    14    10    11   ar
    15    11    12   ar
    16    12    13   ar
    17    13    14   ar
    18    14    15   ar
    19     1    16    1
    20    16    17   ar
    21    17    18   ar
    22    18    19   ar
    23    19    20   ar
    24    20    21   ar
    25     6     7   ar
    26     7     8   ar
    27     8     9    1
    28     8     3   ar
    29    15    10   ar
    30    21    16   ar
    31    25    26    1
    32    25    27    1
@<TRIPOS>MOLECULE
*****
 30 32 0 0 0
SMALL
GASTEIGER

@<TRIPOS>ATOM
      1 C1        141.1997  141.3952  164.7972 C.3     1  <1>         0.0953
      2 C2        141.1841  142.3157  170.7262 C.3     1  <1>         0.0307
      3 C3        141.1880  142.0856  169.2440 C.ar    1  <1>        -0.0258
      4 C4        140.4409  143.0189  168.3381 C.ar    1  <1>        -0.0048
      5 C5        140.4448  142.7888  166.8558 C.ar    1  <1>        -0.0032
      6 C6        141.1958  141.6253  166.2795 C.ar    1  <1>        -0.0063
      7 C7        141.9429  140.6920  167.1854 C.ar    1  <1>        -0.0074
      8 C8        141.9390  140.9221  168.6676 C.ar    1  <1>        -0.0261
      9 C9        142.6862  139.9887  169.5735 C.3     1  <1>         0.0307
     10 C10       142.0235  142.6342  164.6071 C.ar    1  <1>        -0.0060
     11 C11       143.4846  142.6229  164.9461 C.ar    1  <1>        -0.0029
     12 C12       144.3083  143.8619  164.7559 C.ar    1  <1>        -0.0003
     13 C13       143.6710  145.1124  164.2267 C.ar    1  <1>        -0.0000
     14 C14       142.2098  145.1237  163.8876 C.ar    1  <1>        -0.0003
     15 C15       141.3861  143.8847  164.0778 C.ar    1  <1>        -0.0029
     16 C16       140.3760  140.1561  164.9874 C.ar    1  <1>        -0.0060
     17 C17       140.9370  138.8172  164.6098 C.ar    1  <1>        -0.0029
     18 C18       140.1132  137.5782  164.8000 C.ar    1  <1>        -0.0003
     19 C19       138.7285  137.6780  165.3678 C.ar    1  <1>        -0.0000
     20 C20       138.1675  139.0168  165.7455 C.ar    1  <1>        -0.0003
     21 C21       138.9913  140.2559  165.5553 C.ar    1  <1>        -0.0029
     22 S1        141.2037  141.1650  163.3150 S.3     1  <1>        -0.1276
     23 C22       139.9068  141.0262  162.5742 C.3     1  <1>         0.0796
     24 C23       139.2625  142.2322  161.9574 C.3     1  <1>         0.0988
     25 N1        139.9285  142.9350  160.8119 N.3     1  <1>        -0.3172
     26 H1        139.3559  143.7270  160.5197 H       1  <1>         0.1192
     27 H2        140.0360  142.2870  160.0316 H       1  <1>         0.1192
     28 C24       137.9521  142.7353  162.4863 C.2     1  <1>         0.0652
     29 O1        136.9131  141.7642  162.9631 O.co2   1  <1>        -0.5478
     30 O2        137.6807  144.2097  162.5384 O.co2   1  <1>        -0.5478
@<TRIPOS>UNITY_ATOM_ATTR
29 1
charge -1
@<TRIPOS>BOND
     1     2     3    1
     2     3     4   ar
     3     4     5   ar
     4     5     6   ar
     5     6     1    1
     6     1    22    1
     7    22    23    1
     8    23    24    1
     9    24    25    1
    10    24    28    1
    11    28    29   ar
    12    28    30   ar
    13     1    10    1
    14    10    11   ar
    15    11    12   ar
    16    12    13   ar
    17    13    14   ar
    18    14    15   ar
    19     1    16    1
    20    16    17   ar
    21    17    18   ar
    22    18    19   ar
    23    19    20   ar
    24    20    21   ar
    25     6     7   ar
    26     7     8   ar
    27     8     9    1
    28     8     3   ar
    29    15    10   ar
    30    21    16   ar
    31    25    26    1
    32    25    27    1
@<TRIPOS>MOLECULE
*****
 30 32 0 0 0
SMALL
GASTEIGER

@<TRIPOS>ATOM
      1 C1        141.3700  141.4811  164.9277 C.3     1  <1>         0.0953
      2 C2        141.3404  141.8478  170.9165 C.3     1  <1>         0.0307
      3 C3        141.3478  141.7561  169.4193 C.ar    1  <1>        -0.0258
      4 C4        142.4566  142.3920  168.6344 C.ar    1  <1>        -0.0048
      5 C5        142.4640  142.3004  167.1372 C.ar    1  <1>        -0.0032
      6 C6        141.3626  141.5728  166.4249 C.ar    1  <1>        -0.0063
      7 C7        140.2538  140.9369  167.2098 C.ar    1  <1>        -0.0074
      8 C8        140.2464  141.0286  168.7070 C.ar    1  <1>        -0.0261
      9 C9        139.1375  140.3926  169.4918 C.3     1  <1>         0.0307
     10 C10       140.1741  142.3845  164.8665 C.ar    1  <1>        -0.0060
     11 C11       140.3373  143.8603  165.0795 C.ar    1  <1>        -0.0029
     12 C12       139.1414  144.7637  165.0183 C.ar    1  <1>        -0.0003
     13 C13       137.7823  144.1913  164.7441 C.ar    1  <1>        -0.0000
     14 C14       137.6191  142.7155  164.5311 C.ar    1  <1>        -0.0003
     15 C15       138.8150  141.8121  164.5923 C.ar    1  <1>        -0.0029
     16 C16       142.5659  140.5778  164.9890 C.ar    1  <1>        -0.0060
     17 C17       142.4887  139.2811  165.7391 C.ar    1  <1>        -0.0029
     18 C18       143.6846  138.3778  165.8003 C.ar    1  <1>        -0.0003
     19 C19       144.9577  138.7710  165.1114 C.ar    1  <1>        -0.0000
     20 C20       145.0348  140.0676  164.3612 C.ar    1  <1>        -0.0003
     21 C21       143.8389  140.9710  164.3000 C.ar    1  <1>        -0.0029
     22 S1        141.3774  141.3895  163.4306 S.3     1  <1>        -0.1276
     23 C22       140.7023  140.2380  162.7463 C.3     1  <1>         0.0796
     24 C23       141.4609  139.4046  161.7563 C.3     1  <1>         0.0988
     25 N1        141.6501  139.8957  160.3517 N.3     1  <1>        -0.3172
     26 H1        142.1845  139.2083  159.8203 H       1  <1>         0.1192
     27 H2        142.1554  140.7816  160.3664 H       1  <1>         0.1192
     28 C24       142.0301  138.0802  162.1709 C.2     1  <1>         0.0652
     29 O1        141.1279  137.0145  162.7189 O.co2   1  <1>        -0.5478
     30 O2        143.5016  137.8215  162.0375 O.co2   1  <1>        -0.5478
@<TRIPOS>UNITY_ATOM_ATTR
29 1
charge -1
@<TRIPOS>BOND
     1     2     3    1
     2     3     4   ar
     3     4     5   ar
     4     5     6   ar
     5     6     1    1
     6     1    22    1
     7    22    23    1
     8    23    24    1
     9    24    25    1
    10    24    28    1
    11    28    29   ar
    12    28    30   ar
    13     1    10    1
    14    10    11   ar
    15    11    12   ar
    16    12    13   ar
    17    13    14   ar
    18    14    15   ar
    19     1    16    1
    20    16    17   ar
    21    17    18   ar
    22    18    19   ar
    23    19    20   ar
    24    20    21   ar
    25     6     7   ar
    26     7     8   ar
    27     8     9    1
    28     8     3   ar
    29    15    10   ar
    30    21    16   ar
    31    25    26    1
    32    25    27    1
@<TRIPOS>MOLECULE
*****
 30 32 0 0 0
SMALL
GASTEIGER

@<TRIPOS>ATOM
      1 C1        141.1668  141.4596  164.9522 C.3     1  <1>         0.0953
      2 C2        142.2064  141.6684  170.8578 C.3     1  <1>         0.0307
      3 C3        141.9465  141.6162  169.3814 C.ar    1  <1>        -0.0258
      4 C4        142.5880  140.5497  168.5442 C.ar    1  <1>        -0.0048
      5 C5        142.3281  140.4975  167.0678 C.ar    1  <1>        -0.0032
      6 C6        141.4267  141.5118  166.4286 C.ar    1  <1>        -0.0063
      7 C7        140.7852  142.5783  167.2658 C.ar    1  <1>        -0.0074
      8 C8        141.0450  142.6305  168.7422 C.ar    1  <1>        -0.0261
      9 C9        140.4035  143.6971  169.5794 C.3     1  <1>         0.0307
     10 C10       142.0338  142.6679  164.7569 C.ar    1  <1>        -0.0060
     11 C11       141.4803  143.8867  164.0800 C.ar    1  <1>        -0.0029
     12 C12       142.3474  145.0950  163.8847 C.ar    1  <1>        -0.0003
     13 C13       143.7680  145.0845  164.3661 C.ar    1  <1>        -0.0000
     14 C14       144.3215  143.8658  165.0430 C.ar    1  <1>        -0.0003
     15 C15       143.4544  142.6574  165.2383 C.ar    1  <1>        -0.0029
     16 C16       140.2997  140.2512  165.1476 C.ar    1  <1>        -0.0060
     17 C17       140.8229  138.8888  164.8013 C.ar    1  <1>        -0.0029
     18 C18       139.9558  137.6805  164.9966 C.ar    1  <1>        -0.0003
     19 C19       138.5656  137.8346  165.5383 C.ar    1  <1>        -0.0000
     20 C20       138.0425  139.1970  165.8847 C.ar    1  <1>        -0.0003
     21 C21       138.9095  140.4054  165.6893 C.ar    1  <1>        -0.0029
     22 S1        140.9069  141.4073  163.4758 S.3     1  <1>        -0.1276
     23 C22       141.7718  140.5589  162.5916 C.3     1  <1>         0.0796
     24 C23       143.0343  141.1243  162.0117 C.3     1  <1>         0.0988
     25 N1        142.9645  142.2003  160.9690 N.3     1  <1>        -0.3172
     26 H1        143.9092  142.4645  160.6893 H       1  <1>         0.1192
     27 H2        142.4832  143.0140  161.3518 H       1  <1>         0.1192
     28 C24       144.3667  140.6137  162.4745 C.2     1  <1>         0.0652
     29 O1        144.4976  139.2059  162.9753 O.co2   1  <1>        -0.5478
     30 O2        145.5681  141.5110  162.4366 O.co2   1  <1>        -0.5478
@<TRIPOS>UNITY_ATOM_ATTR
29 1
charge -1
@<TRIPOS>BOND
     1     2     3    1
     2     3     4   ar
     3     4     5   ar
     4     5     6   ar
     5     6     1    1
     6     1    22    1
     7    22    23    1
     8    23    24    1
     9    24    25    1
    10    24    28    1
    11    28    29   ar
    12    28    30   ar
    13     1    10    1
    14    10    11   ar
    15    11    12   ar
    16    12    13   ar
    17    13    14   ar
    18    14    15   ar
    19     1    16    1
    20    16    17   ar
    21    17    18   ar
    22    18    19   ar
    23    19    20   ar
    24    20    21   ar
    25     6     7   ar
    26     7     8   ar
    27     8     9    1
    28     8     3   ar
    29    15    10   ar
    30    21    16   ar
    31    25    26    1
    32    25    27    1
