@<TRIPOS>MOLECULE
*****
 27 30 0 0 0
SMALL
GASTEIGER

@<TRIPOS>ATOM
      1 C         142.7854  138.0067  159.0537 C.3     1  UNL1        0.1355
      2 C         142.7028  136.8556  158.0954 C.3     1  UNL1        0.0700
      3 C         142.6083  137.4147  156.7066 C.3     1  UNL1        0.1834
      4 C         142.6325  138.9111  156.8067 C.3     1  UNL1        0.1130
      5 N         142.7420  139.2769  158.2572 N.3     1  UNL1       -0.2882
      6 H         141.9334  139.8328  158.5360 H       1  UNL1        0.1237
      7 O         144.2299  137.6835  161.1889 O.2     1  UNL1       -0.2734
      8 C         142.8927  137.9051  160.5464 C.2     1  UNL1        0.2401
      9 N         141.6628  138.0250  161.3966 N.am    1  UNL1       -0.2770
     10 C         140.3777  138.2452  160.6547 C.3     1  UNL1        0.0949
     11 C         138.9930  138.4036  161.2093 C.3     1  UNL1        0.0388
     12 C         138.5514  138.3811  162.6425 C.3     1  UNL1        0.0739
     13 N         139.3853  138.1946  163.8754 N.3     1  UNL1       -0.2725
     14 C         140.8668  137.9844  163.9793 C.3     1  UNL1        0.0938
     15 C         141.8804  137.9090  162.8761 C.3     1  UNL1        0.1107
     16 C         138.6390  138.2217  165.1762 C.3     1  UNL1        0.0576
     17 C         138.0629  137.1813  166.0905 C.3     1  UNL1        0.0160
     18 C         137.5835  138.2601  167.0159 C.3     1  UNL1        0.0028
     19 C         138.1595  139.3005  166.1017 C.3     1  UNL1        0.0160
     20 O         142.5073  136.6172  155.4401 O.3     1  UNL1       -0.4776
     21 C         142.5427  135.1185  155.4927 C.ar    1  UNL1        0.1407
     22 C         141.2998  134.3285  155.2078 C.ar    1  UNL1        0.0370
     23 C         141.3351  132.8299  155.2603 C.ar    1  UNL1        0.0054
     24 C         142.6134  132.1212  155.5977 C.ar    1  UNL1        0.0298
     25 C         143.8562  132.9112  155.8826 C.ar    1  UNL1        0.1432
     26 F         145.1345  132.2026  156.2201 F       1  UNL1       -0.2041
     27 C         143.8208  134.4099  155.8301 C.ar    1  UNL1        0.0665
@<TRIPOS>BOND
     1     7     8    2
     2     1     8    1
     3     1     2    1
     4     2     3    1
     5     3    20    1
     6    20    21    1
     7    21    22   ar
     8    22    23   ar
     9    23    24   ar
    10    24    25   ar
    11    25    26    1
    12    25    27   ar
    13     3     4    1
    14     4     5    1
    15     8     9   am
    16     9    10    1
    17    10    11    1
    18    11    12    1
    19    12    13    1
    20    13    16    1
    21    16    17    1
    22    17    18    1
    23    18    19    1
    24    13    14    1
    25    14    15    1
    26     5     1    1
    27    15     9    1
    28    27    21   ar
    29    19    16    1
    30     5     6    1
@<TRIPOS>MOLECULE
*****
 27 30 0 0 0
SMALL
GASTEIGER

@<TRIPOS>ATOM
      1 C         140.5439  138.8683  157.8687 C.3     1  UNL1        0.1355
      2 C         140.6602  137.6155  157.0520 C.3     1  UNL1        0.0700
      3 C         141.9500  137.6780  156.2886 C.3     1  UNL1        0.1834
      4 C         142.6306  138.9693  156.6335 C.3     1  UNL1        0.1130
      5 N         141.7616  139.7049  157.6100 N.3     1  UNL1       -0.2882
      6 H         141.4861  140.6054  157.2181 H       1  UNL1        0.1237
      7 O         138.1735  139.8685  158.2304 O.2     1  UNL1       -0.2734
      8 C         139.4090  139.2221  158.7834 C.2     1  UNL1        0.2401
      9 N         139.5095  138.9297  160.2512 N.am    1  UNL1       -0.2770
     10 C         140.7863  138.2825  160.6998 C.3     1  UNL1        0.0949
     11 C         141.1889  137.8689  162.0844 C.3     1  UNL1        0.0388
     12 C         140.4143  138.0002  163.3620 C.3     1  UNL1        0.0739
     13 N         139.0457  138.5777  163.5710 N.3     1  UNL1       -0.2725
     14 C         138.1138  139.1664  162.5537 C.3     1  UNL1        0.0938
     15 C         138.3203  139.3230  161.0762 C.3     1  UNL1        0.1107
     16 C         138.5426  138.5647  164.9840 C.3     1  UNL1        0.0576
     17 C         138.1816  139.6162  165.9911 C.3     1  UNL1        0.0160
     18 C         137.8310  138.5464  166.9823 C.3     1  UNL1        0.0028
     19 C         138.1919  137.4949  165.9753 C.3     1  UNL1        0.0160
     20 O         142.4680  136.6326  155.3458 O.3     1  UNL1       -0.4776
     21 C         142.5943  135.2088  155.8006 C.ar    1  UNL1        0.1407
     22 C         141.6953  134.1550  155.2248 C.ar    1  UNL1        0.0370
     23 C         141.8215  132.7313  155.6796 C.ar    1  UNL1        0.0054
     24 C         142.8467  132.3612  156.7102 C.ar    1  UNL1        0.0298
     25 C         143.7456  133.4149  157.2859 C.ar    1  UNL1        0.1432
     26 F         144.7708  133.0449  158.3165 F       1  UNL1       -0.2041
     27 C         143.6194  134.8387  156.8311 C.ar    1  UNL1        0.0665
@<TRIPOS>BOND
     1     7     8    2
     2     1     8    1
     3     1     2    1
     4     2     3    1
     5     3    20    1
     6    20    21    1
     7    21    22   ar
     8    22    23   ar
     9    23    24   ar
    10    24    25   ar
    11    25    26    1
    12    25    27   ar
    13     3     4    1
    14     4     5    1
    15     8     9   am
    16     9    10    1
    17    10    11    1
    18    11    12    1
    19    12    13    1
    20    13    16    1
    21    16    17    1
    22    17    18    1
    23    18    19    1
    24    13    14    1
    25    14    15    1
    26     5     1    1
    27    15     9    1
    28    27    21   ar
    29    19    16    1
    30     5     6    1
@<TRIPOS>MOLECULE
*****
 27 30 0 0 0
SMALL
GASTEIGER

@<TRIPOS>ATOM
      1 C         138.6905  140.0940  165.2541 C.3     1  UNL1        0.1355
      2 C         139.5524  140.4679  166.4234 C.3     1  UNL1        0.0700
      3 C         139.0718  139.6989  167.6182 C.3     1  UNL1        0.1834
      4 C         137.9129  138.8497  167.1874 C.3     1  UNL1        0.1130
      5 N         137.6772  139.0939  165.7263 N.3     1  UNL1       -0.2882
      6 H         136.7362  139.4610  165.5841 H       1  UNL1        0.1237
      7 O         138.0611  141.8553  163.4508 O.2     1  UNL1       -0.2734
      8 C         138.8192  140.6266  163.8578 C.2     1  UNL1        0.2401
      9 N         139.7062  139.9307  162.8684 N.am    1  UNL1       -0.2770
     10 C         140.4185  138.7125  163.3772 C.3     1  UNL1        0.0949
     11 C         141.3641  137.8076  162.6443 C.3     1  UNL1        0.0388
     12 C         141.8310  137.8975  161.2217 C.3     1  UNL1        0.0739
     13 N         141.4677  138.9144  160.1805 N.3     1  UNL1       -0.2725
     14 C         140.5476  140.0926  160.3049 C.3     1  UNL1        0.0938
     15 C         139.7637  140.5448  161.5012 C.3     1  UNL1        0.1107
     16 C         142.1092  138.7285  158.8375 C.3     1  UNL1        0.0576
     17 C         142.6235  137.5525  158.0613 C.3     1  UNL1        0.0160
     18 C         143.0164  138.4657  156.9380 C.3     1  UNL1        0.0028
     19 C         142.5021  139.6417  157.7141 C.3     1  UNL1        0.0160
     20 O         139.6489  139.7672  169.0011 O.3     1  UNL1       -0.4776
     21 C         140.6760  140.8082  169.3347 C.ar    1  UNL1        0.1407
     22 C         142.1246  140.4301  169.4268 C.ar    1  UNL1        0.0370
     23 C         143.1517  141.4711  169.7603 C.ar    1  UNL1        0.0054
     24 C         142.7303  142.8903  170.0018 C.ar    1  UNL1        0.0298
     25 C         141.2816  143.2684  169.9096 C.ar    1  UNL1        0.1432
     26 F         140.8601  144.6876  170.1511 F       1  UNL1       -0.2041
     27 C         140.2545  142.2273  169.5761 C.ar    1  UNL1        0.0665
@<TRIPOS>BOND
     1     7     8    2
     2     1     8    1
     3     1     2    1
     4     2     3    1
     5     3    20    1
     6    20    21    1
     7    21    22   ar
     8    22    23   ar
     9    23    24   ar
    10    24    25   ar
    11    25    26    1
    12    25    27   ar
    13     3     4    1
    14     4     5    1
    15     8     9   am
    16     9    10    1
    17    10    11    1
    18    11    12    1
    19    12    13    1
    20    13    16    1
    21    16    17    1
    22    17    18    1
    23    18    19    1
    24    13    14    1
    25    14    15    1
    26     5     1    1
    27    15     9    1
    28    27    21   ar
    29    19    16    1
    30     5     6    1
@<TRIPOS>MOLECULE
*****
 27 30 0 0 0
SMALL
GASTEIGER

@<TRIPOS>ATOM
      1 C         139.5145  139.3682  165.1815 C.3     1  UNL1        0.1355
      2 C         140.1580  139.8482  166.4486 C.3     1  UNL1        0.0700
      3 C         139.2258  139.5474  167.5847 C.3     1  UNL1        0.1834
      4 C         138.0062  138.8816  167.0196 C.3     1  UNL1        0.1130
      5 N         138.1847  138.7708  165.5344 N.3     1  UNL1       -0.2882
      6 H         137.4396  139.2785  165.0575 H       1  UNL1        0.1237
      7 O         140.8602  138.3121  163.2260 O.2     1  UNL1       -0.2734
      8 C         140.0985  139.4681  163.8035 C.2     1  UNL1        0.2401
      9 N         139.9207  140.7240  163.0028 N.am    1  UNL1       -0.2770
     10 C         139.1436  141.8183  163.6727 C.3     1  UNL1        0.0949
     11 C         138.7974  143.1785  163.1433 C.3     1  UNL1        0.0388
     12 C         139.1428  143.7802  161.8135 C.3     1  UNL1        0.0739
     13 N         139.9197  143.1705  160.6845 N.3     1  UNL1       -0.2725
     14 C         140.5431  141.8084  160.6065 C.3     1  UNL1        0.0938
     15 C         140.5435  140.7196  161.6383 C.3     1  UNL1        0.1107
     16 C         140.0966  144.0375  159.4733 C.3     1  UNL1        0.0576
     17 C         139.6694  143.9544  158.0378 C.3     1  UNL1        0.0160
     18 C         140.3468  145.2637  157.7604 C.3     1  UNL1        0.0028
     19 C         140.7740  145.3468  159.1958 C.3     1  UNL1        0.0160
     20 O         139.4703  139.8580  169.0317 O.3     1  UNL1       -0.4776
     21 C         140.4813  140.8975  169.4152 C.ar    1  UNL1        0.1407
     22 C         141.9100  140.5042  169.6483 C.ar    1  UNL1        0.0370
     23 C         142.9210  141.5436  170.0318 C.ar    1  UNL1        0.0054
     24 C         142.5036  142.9765  170.1823 C.ar    1  UNL1        0.0298
     25 C         141.0750  143.3698  169.9492 C.ar    1  UNL1        0.1432
     26 F         140.6574  144.8027  170.0997 F       1  UNL1       -0.2041
     27 C         140.0639  142.3303  169.5657 C.ar    1  UNL1        0.0665
@<TRIPOS>BOND
     1     7     8    2
     2     1     8    1
     3     1     2    1
     4     2     3    1
     5     3    20    1
     6    20    21    1
     7    21    22   ar
     8    22    23   ar
     9    23    24   ar
    10    24    25   ar
    11    25    26    1
    12    25    27   ar
    13     3     4    1
    14     4     5    1
    15     8     9   am
    16     9    10    1
    17    10    11    1
    18    11    12    1
    19    12    13    1
    20    13    16    1
    21    16    17    1
    22    17    18    1
    23    18    19    1
    24    13    14    1
    25    14    15    1
    26     5     1    1
    27    15     9    1
    28    27    21   ar
    29    19    16    1
    30     5     6    1
@<TRIPOS>MOLECULE
*****
 27 30 0 0 0
SMALL
GASTEIGER

@<TRIPOS>ATOM
      1 C         144.3778  141.9805  161.8569 C.3     1  UNL1        0.1355
      2 C         143.3652  142.3798  162.8891 C.3     1  UNL1        0.0700
      3 C         144.0742  142.5217  164.2033 C.3     1  UNL1        0.1834
      4 C         145.5249  142.2101  163.9834 C.3     1  UNL1        0.1130
      5 N         145.7125  141.8756  162.5333 N.3     1  UNL1       -0.2882
      6 H         146.0737  140.9262  162.4410 H       1  UNL1        0.1237
      7 O         144.1832  142.8595  159.4199 O.2     1  UNL1       -0.2734
      8 C         144.1037  141.7300  160.4036 C.2     1  UNL1        0.2401
      9 N         143.7500  140.3500  159.9341 N.am    1  UNL1       -0.2770
     10 C         143.6978  139.2939  160.9982 C.3     1  UNL1        0.0949
     11 C         143.3780  137.8355  160.8535 C.3     1  UNL1        0.0388
     12 C         143.0315  137.0731  159.6092 C.3     1  UNL1        0.0739
     13 N         142.9191  137.5805  158.2021 N.3     1  UNL1       -0.2725
     14 C         143.1255  138.9759  157.6919 C.3     1  UNL1        0.0938
     15 C         143.4953  140.2084  158.4628 C.3     1  UNL1        0.1107
     16 C         142.5517  136.5574  157.1686 C.3     1  UNL1        0.0576
     17 C         141.5775  136.5030  156.0293 C.3     1  UNL1        0.0160
     18 C         142.0321  135.1104  155.7070 C.3     1  UNL1        0.0028
     19 C         143.0063  135.1646  156.8463 C.3     1  UNL1        0.0160
     20 O         143.4433  142.9075  165.5084 O.3     1  UNL1       -0.4776
     21 C         143.1464  141.8573  166.5374 C.ar    1  UNL1        0.1407
     22 C         142.8617  140.4479  166.1101 C.ar    1  UNL1        0.0370
     23 C         142.5648  139.3977  167.1390 C.ar    1  UNL1        0.0054
     24 C         142.5527  139.7568  168.5953 C.ar    1  UNL1        0.0298
     25 C         142.8374  141.1662  169.0227 C.ar    1  UNL1        0.1432
     26 F         142.8253  141.5253  170.4790 F       1  UNL1       -0.2041
     27 C         143.1343  142.2164  167.9936 C.ar    1  UNL1        0.0665
@<TRIPOS>BOND
     1     7     8    2
     2     1     8    1
     3     1     2    1
     4     2     3    1
     5     3    20    1
     6    20    21    1
     7    21    22   ar
     8    22    23   ar
     9    23    24   ar
    10    24    25   ar
    11    25    26    1
    12    25    27   ar
    13     3     4    1
    14     4     5    1
    15     8     9   am
    16     9    10    1
    17    10    11    1
    18    11    12    1
    19    12    13    1
    20    13    16    1
    21    16    17    1
    22    17    18    1
    23    18    19    1
    24    13    14    1
    25    14    15    1
    26     5     1    1
    27    15     9    1
    28    27    21   ar
    29    19    16    1
    30     5     6    1
@<TRIPOS>MOLECULE
*****
 27 30 0 0 0
SMALL
GASTEIGER

@<TRIPOS>ATOM
      1 C         140.9172  138.1720  162.0643 C.3     1  UNL1        0.1355
      2 C         140.6089  138.6731  160.6845 C.3     1  UNL1        0.0700
      3 C         141.7832  138.3610  159.8048 C.3     1  UNL1        0.1834
      4 C         142.8172  137.6671  160.6410 C.3     1  UNL1        0.1130
      5 N         142.2820  137.5503  162.0374 N.3     1  UNL1       -0.2882
      6 H         142.8982  138.0398  162.6863 H       1  UNL1        0.1237
      7 O         138.7823  137.4293  163.3450 O.2     1  UNL1       -0.2734
      8 C         140.0185  138.2746  163.2608 C.2     1  UNL1        0.2401
      9 N         140.3560  139.2226  164.3732 N.am    1  UNL1       -0.2770
     10 C         141.6131  140.0202  164.1896 C.3     1  UNL1        0.0949
     11 C         142.2165  141.0398  165.1097 C.3     1  UNL1        0.0388
     12 C         141.7119  141.5136  166.4403 C.3     1  UNL1        0.0739
     13 N         140.4792  141.0849  167.1798 N.3     1  UNL1       -0.2725
     14 C         139.4468  140.0764  166.7711 C.3     1  UNL1        0.0938
     15 C         139.3920  139.2476  165.5220 C.3     1  UNL1        0.1107
     16 C         140.2486  141.7529  168.5028 C.3     1  UNL1        0.0576
     17 C         139.6800  141.3238  169.8229 C.3     1  UNL1        0.0160
     18 C         139.9223  142.6977  170.3739 C.3     1  UNL1        0.0028
     19 C         140.4908  143.1269  169.0539 C.3     1  UNL1        0.0160
     20 O         141.9025  138.6859  158.3453 O.3     1  UNL1       -0.4776
     21 C         141.6898  137.6135  157.3184 C.ar    1  UNL1        0.1407
     22 C         140.4134  137.5711  156.5315 C.ar    1  UNL1        0.0370
     23 C         140.2007  136.4987  155.5046 C.ar    1  UNL1        0.0054
     24 C         141.2642  135.4686  155.2645 C.ar    1  UNL1        0.0298
     25 C         142.5405  135.5109  156.0514 C.ar    1  UNL1        0.1432
     26 F         143.6041  134.4808  155.8114 F       1  UNL1       -0.2041
     27 C         142.7533  136.5834  157.0783 C.ar    1  UNL1        0.0665
@<TRIPOS>BOND
     1     7     8    2
     2     1     8    1
     3     1     2    1
     4     2     3    1
     5     3    20    1
     6    20    21    1
     7    21    22   ar
     8    22    23   ar
     9    23    24   ar
    10    24    25   ar
    11    25    26    1
    12    25    27   ar
    13     3     4    1
    14     4     5    1
    15     8     9   am
    16     9    10    1
    17    10    11    1
    18    11    12    1
    19    12    13    1
    20    13    16    1
    21    16    17    1
    22    17    18    1
    23    18    19    1
    24    13    14    1
    25    14    15    1
    26     5     1    1
    27    15     9    1
    28    27    21   ar
    29    19    16    1
    30     5     6    1
@<TRIPOS>MOLECULE
*****
 27 30 0 0 0
SMALL
GASTEIGER

@<TRIPOS>ATOM
      1 C         138.1481  141.0120  160.8323 C.3     1  UNL1        0.1355
      2 C         138.9265  142.2096  161.2906 C.3     1  UNL1        0.0700
      3 C         138.4743  142.5526  162.6792 C.3     1  UNL1        0.1834
      4 C         137.4166  141.5670  163.0789 C.3     1  UNL1        0.1130
      5 N         137.2150  140.6150  161.9375 N.3     1  UNL1       -0.2882
      6 H         136.2501  140.6656  161.6108 H       1  UNL1        0.1237
      7 O         137.1735  140.4331  158.4946 O.2     1  UNL1       -0.2734
      8 C         138.2799  140.3312  159.5023 C.2     1  UNL1        0.2401
      9 N         139.5181  139.5483  159.1798 N.am    1  UNL1       -0.2770
     10 C         140.5624  139.5099  160.2560 C.3     1  UNL1        0.0949
     11 C         141.8949  138.8210  160.2420 C.3     1  UNL1        0.0388
     12 C         142.5121  138.0007  159.1484 C.3     1  UNL1        0.0739
     13 N         141.9494  137.6664  157.7987 N.3     1  UNL1       -0.2725
     14 C         140.6304  138.0700  157.2093 C.3     1  UNL1        0.0938
     15 C         139.5484  138.9076  157.8240 C.3     1  UNL1        0.1107
     16 C         142.8208  136.8161  156.9227 C.3     1  UNL1        0.0576
     17 C         143.7150  137.0736  155.7462 C.3     1  UNL1        0.0160
     18 C         144.0533  135.6136  155.6837 C.3     1  UNL1        0.0028
     19 C         143.1591  135.3560  156.8602 C.3     1  UNL1        0.0160
     20 O         138.9895  143.6828  163.5202 O.3     1  UNL1       -0.4776
     21 C         140.4596  143.8064  163.7912 C.ar    1  UNL1        0.1407
     22 C         141.2198  144.9930  163.2771 C.ar    1  UNL1        0.0370
     23 C         142.6899  145.1167  163.5480 C.ar    1  UNL1        0.0054
     24 C         143.3999  144.0538  164.3330 C.ar    1  UNL1        0.0298
     25 C         142.6397  142.8673  164.8471 C.ar    1  UNL1        0.1432
     26 F         143.3497  141.8044  165.6322 F       1  UNL1       -0.2041
     27 C         141.1696  142.7436  164.5762 C.ar    1  UNL1        0.0665
@<TRIPOS>BOND
     1     7     8    2
     2     1     8    1
     3     1     2    1
     4     2     3    1
     5     3    20    1
     6    20    21    1
     7    21    22   ar
     8    22    23   ar
     9    23    24   ar
    10    24    25   ar
    11    25    26    1
    12    25    27   ar
    13     3     4    1
    14     4     5    1
    15     8     9   am
    16     9    10    1
    17    10    11    1
    18    11    12    1
    19    12    13    1
    20    13    16    1
    21    16    17    1
    22    17    18    1
    23    18    19    1
    24    13    14    1
    25    14    15    1
    26     5     1    1
    27    15     9    1
    28    27    21   ar
    29    19    16    1
    30     5     6    1
@<TRIPOS>MOLECULE
*****
 27 30 0 0 0
SMALL
GASTEIGER

@<TRIPOS>ATOM
      1 C         143.7949  142.9313  160.4859 C.3     1  UNL1        0.1355
      2 C         142.6601  143.6644  161.1377 C.3     1  UNL1        0.0700
      3 C         143.1113  144.0996  162.5005 C.3     1  UNL1        0.1834
      4 C         144.5249  143.6355  162.6909 C.3     1  UNL1        0.1130
      5 N         144.9473  142.9135  161.4458 N.3     1  UNL1       -0.2882
      6 H         145.1949  141.9501  161.6715 H       1  UNL1        0.1237
      7 O         144.0639  143.1746  157.9133 O.2     1  UNL1       -0.2734
      8 C         143.7798  142.3230  159.1150 C.2     1  UNL1        0.2401
      9 N         143.4806  140.8629  158.9455 N.am    1  UNL1       -0.2770
     10 C         143.2109  140.1029  160.2104 C.3     1  UNL1        0.0949
     11 C         142.8846  138.6481  160.3758 C.3     1  UNL1        0.0388
     12 C         142.7475  137.5942  159.3173 C.3     1  UNL1        0.0739
     13 N         142.9028  137.7346  157.8320 N.3     1  UNL1       -0.2725
     14 C         143.2335  138.9637  157.0383 C.3     1  UNL1        0.0938
     15 C         143.4907  140.3559  157.5340 C.3     1  UNL1        0.1107
     16 C         142.7006  136.4801  157.0350 C.3     1  UNL1        0.0576
     17 C         143.4632  135.2003  156.8597 C.3     1  UNL1        0.0160
     18 C         142.4147  134.7059  155.9078 C.3     1  UNL1        0.0028
     19 C         141.6520  135.9856  156.0830 C.3     1  UNL1        0.0160
     20 O         142.2925  144.8646  163.4977 O.3     1  UNL1       -0.4776
     21 C         140.9323  144.3685  163.8897 C.ar    1  UNL1        0.1407
     22 C         139.7059  144.9877  163.2877 C.ar    1  UNL1        0.0370
     23 C         138.3457  144.4916  163.6796 C.ar    1  UNL1        0.0054
     24 C         138.2119  143.3763  164.6737 C.ar    1  UNL1        0.0298
     25 C         139.4383  142.7571  165.2757 C.ar    1  UNL1        0.1432
     26 F         139.3045  141.6417  166.2698 F       1  UNL1       -0.2041
     27 C         140.7985  143.2532  164.8837 C.ar    1  UNL1        0.0665
@<TRIPOS>BOND
     1     7     8    2
     2     1     8    1
     3     1     2    1
     4     2     3    1
     5     3    20    1
     6    20    21    1
     7    21    22   ar
     8    22    23   ar
     9    23    24   ar
    10    24    25   ar
    11    25    26    1
    12    25    27   ar
    13     3     4    1
    14     4     5    1
    15     8     9   am
    16     9    10    1
    17    10    11    1
    18    11    12    1
    19    12    13    1
    20    13    16    1
    21    16    17    1
    22    17    18    1
    23    18    19    1
    24    13    14    1
    25    14    15    1
    26     5     1    1
    27    15     9    1
    28    27    21   ar
    29    19    16    1
    30     5     6    1
@<TRIPOS>MOLECULE
*****
 27 30 0 0 0
SMALL
GASTEIGER

@<TRIPOS>ATOM
      1 C         140.8673  144.9189  159.7535 C.3     1  UNL1        0.1355
      2 C         139.8732  145.0931  158.6437 C.3     1  UNL1        0.0700
      3 C         140.6344  145.2875  157.3659 C.3     1  UNL1        0.1834
      4 C         142.0989  145.2335  157.6860 C.3     1  UNL1        0.1130
      5 N         142.2427  145.0057  159.1615 N.3     1  UNL1       -0.2882
      6 H         142.7528  145.7817  159.5834 H       1  UNL1        0.1237
      7 O         140.5599  145.8511  162.1590 O.2     1  UNL1       -0.2734
      8 C         140.5427  144.6970  161.2010 C.2     1  UNL1        0.2401
      9 N         140.2009  143.3210  161.6906 N.am    1  UNL1       -0.2770
     10 C         140.2125  142.2391  160.6516 C.3     1  UNL1        0.0949
     11 C         139.9187  140.7777  160.8199 C.3     1  UNL1        0.0388
     12 C         139.5409  140.0375  162.0685 C.3     1  UNL1        0.0739
     13 N         139.3634  140.5756  163.4574 N.3     1  UNL1       -0.2725
     14 C         139.5200  141.9869  163.9406 C.3     1  UNL1        0.0938
     15 C         139.8927  143.2087  163.1542 C.3     1  UNL1        0.1107
     16 C         138.9785  139.5693  164.5010 C.3     1  UNL1        0.0576
     17 C         139.3322  138.1376  164.7755 C.3     1  UNL1        0.0160
     18 C         138.4341  138.1461  165.9769 C.3     1  UNL1        0.0028
     19 C         138.0804  139.5778  165.7025 C.3     1  UNL1        0.0160
     20 O         140.0362  145.4988  156.0067 O.3     1  UNL1       -0.4776
     21 C         139.8061  146.8905  155.4966 C.ar    1  UNL1        0.1407
     22 C         140.4516  147.3371  154.2183 C.ar    1  UNL1        0.0370
     23 C         140.2215  148.7287  153.7083 C.ar    1  UNL1        0.0054
     24 C         139.3460  149.6739  154.4763 C.ar    1  UNL1        0.0298
     25 C         138.7004  149.2273  155.7546 C.ar    1  UNL1        0.1432
     26 F         137.8248  150.1725  156.5228 F       1  UNL1       -0.2041
     27 C         138.9305  147.8356  156.2647 C.ar    1  UNL1        0.0665
@<TRIPOS>BOND
     1     7     8    2
     2     1     8    1
     3     1     2    1
     4     2     3    1
     5     3    20    1
     6    20    21    1
     7    21    22   ar
     8    22    23   ar
     9    23    24   ar
    10    24    25   ar
    11    25    26    1
    12    25    27   ar
    13     3     4    1
    14     4     5    1
    15     8     9   am
    16     9    10    1
    17    10    11    1
    18    11    12    1
    19    12    13    1
    20    13    16    1
    21    16    17    1
    22    17    18    1
    23    18    19    1
    24    13    14    1
    25    14    15    1
    26     5     1    1
    27    15     9    1
    28    27    21   ar
    29    19    16    1
    30     5     6    1
