@<TRIPOS>MOLECULE
*****
 36 40 0 0 0
SMALL
GASTEIGER

@<TRIPOS>ATOM
      1 N         138.6334  141.1057  163.7415 N.3     1  UNL1       -0.2680
      2 C         138.2862  142.5595  163.8671 C.3     1  UNL1        0.0897
      3 C         138.6842  143.5216  162.7873 C.3     1  UNL1        0.0897
      4 N         139.4294  143.0299  161.5820 N.3     1  UNL1       -0.2680
      5 C         139.7767  141.5760  161.4564 C.3     1  UNL1        0.0897
      6 C         139.3787  140.6139  162.5361 C.3     1  UNL1        0.0897
      7 C         138.2354  140.1435  164.8213 C.3     1  UNL1        0.1064
      8 C         139.2868  139.4899  165.6683 C.3     1  UNL1        0.1483
      9 O         139.9381  138.2196  165.2078 O.3     1  UNL1       -0.3786
     10 H         140.5894  137.9328  165.8669 H       1  UNL1        0.2108
     11 C         141.6651  141.3138  165.8011 C.3     1  UNL1        0.0306
     12 C         140.8760  141.0187  167.0422 C.ar    1  UNL1       -0.0238
     13 C         139.6869  140.1067  166.9759 C.ar    1  UNL1        0.0015
     14 C         138.8979  139.8115  168.2169 C.ar    1  UNL1       -0.0020
     15 C         139.2979  140.4282  169.5244 C.ar    1  UNL1        0.0060
     16 C         140.4870  141.3402  169.5908 C.ar    1  UNL1        0.0748
     17 C         141.2761  141.6354  168.3498 C.ar    1  UNL1        0.0233
     18 C         142.3925  142.5660  168.7207 C.3     1  UNL1        0.2352
     19 O         142.2934  142.8459  170.1910 O.3     1  UNL1       -0.4404
     20 C         141.1157  142.0883  170.7288 C.2     1  UNL1        0.3413
     21 O         140.6489  142.0803  172.1542 O.2     1  UNL1       -0.2449
     22 C         139.8274  143.9920  160.5023 C.3     1  UNL1        0.1064
     23 C         141.1448  144.7050  160.5811 C.3     1  UNL1        0.1483
     24 O         141.5299  145.6890  159.5165 O.3     1  UNL1       -0.3786
     25 H         140.8211  145.7455  158.8567 H       1  UNL1        0.2108
     26 C         142.0770  144.4340  161.7246 C.ar    1  UNL1        0.0015
     27 C         141.9938  145.2619  162.9726 C.ar    1  UNL1       -0.0020
     28 C         142.9260  144.9908  164.1160 C.ar    1  UNL1        0.0060
     29 C         143.9415  143.8918  164.0114 C.ar    1  UNL1        0.0748
     30 C         144.0247  143.0638  162.7634 C.ar    1  UNL1        0.0233
     31 C         143.0925  143.3349  161.6200 C.ar    1  UNL1       -0.0238
     32 C         143.1757  142.5070  160.3720 C.3     1  UNL1        0.0306
     33 C         145.1199  142.0557  162.9482 C.3     1  UNL1        0.2352
     34 O         145.7135  142.2606  164.3105 O.3     1  UNL1       -0.4404
     35 C         144.9853  143.3953  164.9676 C.2     1  UNL1        0.3413
     36 O         145.2536  143.9383  166.3398 O.2     1  UNL1       -0.2449
@<TRIPOS>BOND
     1    11    12    1
     2    12    13   ar
     3    13     8    1
     4     8     9    1
     5     8     7    1
     6     7     1    1
     7     1     2    1
     8     2     3    1
     9     3     4    1
    10     4    22    1
    11    22    23    1
    12    23    24    1
    13    23    26    1
    14    26    27   ar
    15    27    28   ar
    16    28    29   ar
    17    29    30   ar
    18    30    31   ar
    19    31    32    1
    20    30    33    1
    21    33    34    1
    22    34    35    1
    23    35    36    2
    24     4     5    1
    25     5     6    1
    26    13    14   ar
    27    14    15   ar
    28    15    16   ar
    29    16    17   ar
    30    17    18    1
    31    18    19    1
    32    19    20    1
    33    20    21    2
    34    17    12   ar
    35     6     1    1
    36    20    16    1
    37    31    26   ar
    38    35    29    1
    39     9    10    1
    40    24    25    1
@<TRIPOS>MOLECULE
*****
 36 40 0 0 0
SMALL
GASTEIGER

@<TRIPOS>ATOM
      1 N         139.3655  142.9781  161.5829 N.3     1  UNL1       -0.2680
      2 C         139.7840  141.5435  161.4536 C.3     1  UNL1        0.0897
      3 C         139.3911  140.5499  162.5064 C.3     1  UNL1        0.0897
      4 N         138.5797  140.9909  163.6884 N.3     1  UNL1       -0.2680
      5 C         138.1612  142.4255  163.8176 C.3     1  UNL1        0.0897
      6 C         138.5541  143.4192  162.7649 C.3     1  UNL1        0.0897
      7 C         139.7584  143.9718  160.5301 C.3     1  UNL1        0.1064
      8 C         141.0762  144.6822  160.6239 C.3     1  UNL1        0.1483
      9 O         141.4738  145.6679  159.5655 O.3     1  UNL1       -0.3786
     10 H         142.3473  146.0335  159.7759 H       1  UNL1        0.2108
     11 C         143.2067  142.5849  160.3743 C.3     1  UNL1        0.0306
     12 C         143.0616  143.3582  161.6514 C.ar    1  UNL1       -0.0238
     13 C         141.9963  144.4069  161.7762 C.ar    1  UNL1        0.0015
     14 C         141.8512  145.1803  163.0532 C.ar    1  UNL1       -0.0020
     15 C         142.7713  144.9051  164.2054 C.ar    1  UNL1        0.0060
     16 C         143.8366  143.8564  164.0806 C.ar    1  UNL1        0.0748
     17 C         143.9817  143.0830  162.8036 C.ar    1  UNL1        0.0233
     18 C         145.1167  142.1171  162.9731 C.3     1  UNL1        0.2352
     19 O         145.6730  142.2935  164.3549 O.3     1  UNL1       -0.4404
     20 C         144.8819  143.3685  165.0394 C.2     1  UNL1        0.3413
     21 O         145.0981  143.8678  166.4372 O.2     1  UNL1       -0.2449
     22 C         138.1868  139.9972  164.7411 C.3     1  UNL1        0.1064
     23 C         139.2379  139.3607  165.6014 C.3     1  UNL1        0.1483
     24 O         139.8795  138.0743  165.1733 O.3     1  UNL1       -0.3786
     25 H         139.5037  137.7923  164.3247 H       1  UNL1        0.2108
     26 C         139.6473  140.0107  166.8898 C.ar    1  UNL1        0.0015
     27 C         138.8731  139.7399  168.1457 C.ar    1  UNL1       -0.0020
     28 C         139.2826  140.3899  169.4340 C.ar    1  UNL1        0.0060
     29 C         140.4662  141.3107  169.4664 C.ar    1  UNL1        0.0748
     30 C         141.2404  141.5815  168.2105 C.ar    1  UNL1        0.0233
     31 C         140.8309  140.9315  166.9222 C.ar    1  UNL1       -0.0238
     32 C         141.6051  141.2023  165.6663 C.3     1  UNL1        0.0306
     33 C         142.3544  142.5277  168.5477 C.3     1  UNL1        0.2352
     34 O         142.2687  142.8417  170.0120 O.3     1  UNL1       -0.4404
     35 C         141.1018  142.0896  170.5798 C.2     1  UNL1        0.3413
     36 O         140.6497  142.1123  172.0098 O.2     1  UNL1       -0.2449
@<TRIPOS>BOND
     1    11    12    1
     2    12    13   ar
     3    13     8    1
     4     8     9    1
     5     8     7    1
     6     7     1    1
     7     1     2    1
     8     2     3    1
     9     3     4    1
    10     4    22    1
    11    22    23    1
    12    23    24    1
    13    23    26    1
    14    26    27   ar
    15    27    28   ar
    16    28    29   ar
    17    29    30   ar
    18    30    31   ar
    19    31    32    1
    20    30    33    1
    21    33    34    1
    22    34    35    1
    23    35    36    2
    24     4     5    1
    25     5     6    1
    26    13    14   ar
    27    14    15   ar
    28    15    16   ar
    29    16    17   ar
    30    17    18    1
    31    18    19    1
    32    19    20    1
    33    20    21    2
    34    17    12   ar
    35     6     1    1
    36    20    16    1
    37    31    26   ar
    38    35    29    1
    39     9    10    1
    40    24    25    1
@<TRIPOS>MOLECULE
*****
 36 40 0 0 0
SMALL
GASTEIGER

@<TRIPOS>ATOM
      1 N         143.3950  139.3777  163.0829 N.3     1  UNL1       -0.2680
      2 C         142.2315  138.9605  162.2330 C.3     1  UNL1        0.0897
      3 C         141.0045  138.3820  162.8732 C.3     1  UNL1        0.0897
      4 N         140.9409  138.2209  164.3631 N.3     1  UNL1       -0.2680
      5 C         142.1043  138.6381  165.2130 C.3     1  UNL1        0.0897
      6 C         143.3314  139.2165  164.5730 C.3     1  UNL1        0.0897
      7 C         144.6220  139.9561  162.4429 C.3     1  UNL1        0.1064
      8 C         144.9533  141.4069  162.6314 C.3     1  UNL1        0.1483
      9 O         146.3154  141.8086  163.1144 O.3     1  UNL1       -0.3786
     10 H         146.3627  142.7752  163.1812 H       1  UNL1        0.2108
     11 C         144.0578  141.8789  159.8072 C.3     1  UNL1        0.0306
     12 C         143.4746  142.6920  160.9247 C.ar    1  UNL1       -0.0238
     13 C         143.9223  142.4560  162.3369 C.ar    1  UNL1        0.0015
     14 C         143.3392  143.2691  163.4543 C.ar    1  UNL1       -0.0020
     15 C         142.3083  144.3181  163.1598 C.ar    1  UNL1        0.0060
     16 C         141.8606  144.5541  161.7478 C.ar    1  UNL1        0.0748
     17 C         142.4437  143.7411  160.6303 C.ar    1  UNL1        0.0233
     18 C         141.8121  144.1954  159.3479 C.3     1  UNL1        0.2352
     19 O         140.8385  145.2893  159.6729 O.3     1  UNL1       -0.4404
     20 C         140.8685  145.5110  161.1561 C.2     1  UNL1        0.3413
     21 O         140.0501  146.5136  161.9144 O.2     1  UNL1       -0.2449
     22 C         139.7138  137.6424  165.0032 C.3     1  UNL1        0.1064
     23 C         138.6571  138.5517  165.5569 C.3     1  UNL1        0.1483
     24 O         137.7555  138.0721  166.6556 O.3     1  UNL1       -0.3786
     25 H         137.9878  137.1597  166.8893 H       1  UNL1        0.2108
     26 C         138.5020  139.9406  165.0120 C.ar    1  UNL1        0.0015
     27 C         137.7112  140.1704  163.7583 C.ar    1  UNL1       -0.0020
     28 C         137.5562  141.5593  163.2134 C.ar    1  UNL1        0.0060
     29 C         138.1919  142.7184  163.9223 C.ar    1  UNL1        0.0748
     30 C         138.9826  142.4885  165.1760 C.ar    1  UNL1        0.0233
     31 C         139.1377  141.0996  165.7209 C.ar    1  UNL1       -0.0238
     32 C         139.9284  140.8698  166.9746 C.3     1  UNL1        0.0306
     33 C         139.4909  143.8166  165.6534 C.3     1  UNL1        0.2352
     34 O         139.0142  144.8672  164.6947 O.3     1  UNL1       -0.4404
     35 C         138.2114  144.1885  163.6248 C.2     1  UNL1        0.3413
     36 O         137.5451  144.8617  162.4617 O.2     1  UNL1       -0.2449
@<TRIPOS>BOND
     1    11    12    1
     2    12    13   ar
     3    13     8    1
     4     8     9    1
     5     8     7    1
     6     7     1    1
     7     1     2    1
     8     2     3    1
     9     3     4    1
    10     4    22    1
    11    22    23    1
    12    23    24    1
    13    23    26    1
    14    26    27   ar
    15    27    28   ar
    16    28    29   ar
    17    29    30   ar
    18    30    31   ar
    19    31    32    1
    20    30    33    1
    21    33    34    1
    22    34    35    1
    23    35    36    2
    24     4     5    1
    25     5     6    1
    26    13    14   ar
    27    14    15   ar
    28    15    16   ar
    29    16    17   ar
    30    17    18    1
    31    18    19    1
    32    19    20    1
    33    20    21    2
    34    17    12   ar
    35     6     1    1
    36    20    16    1
    37    31    26   ar
    38    35    29    1
    39     9    10    1
    40    24    25    1
@<TRIPOS>MOLECULE
*****
 36 40 0 0 0
SMALL
GASTEIGER

@<TRIPOS>ATOM
      1 N         139.2400  138.3129  162.3488 N.3     1  UNL1       -0.2680
      2 C         138.9393  137.7586  163.7098 C.3     1  UNL1        0.0897
      3 C         140.0195  137.6935  164.7485 C.3     1  UNL1        0.0897
      4 N         141.4004  138.1828  164.4262 N.3     1  UNL1       -0.2680
      5 C         141.7011  138.7371  163.0652 C.3     1  UNL1        0.0897
      6 C         140.6209  138.8022  162.0265 C.3     1  UNL1        0.0897
      7 C         138.1599  138.3780  161.3100 C.3     1  UNL1        0.1064
      8 C         137.4109  139.6582  161.0861 C.3     1  UNL1        0.1483
      9 O         136.3169  139.7177  160.0616 O.3     1  UNL1       -0.3786
     10 H         135.9389  140.6109  160.0438 H       1  UNL1        0.2108
     11 C         139.0068  141.8699  159.8364 C.3     1  UNL1        0.0306
     12 C         138.5539  141.9848  161.2618 C.ar    1  UNL1       -0.0238
     13 C         137.7560  140.8789  161.8867 C.ar    1  UNL1        0.0015
     14 C         137.3031  140.9938  163.3120 C.ar    1  UNL1       -0.0020
     15 C         137.6481  142.2144  164.1126 C.ar    1  UNL1        0.0060
     16 C         138.4460  143.3203  163.4878 C.ar    1  UNL1        0.0748
     17 C         138.8989  143.2055  162.0624 C.ar    1  UNL1        0.0233
     18 C         139.6665  144.4474  161.7184 C.3     1  UNL1        0.2352
     19 O         139.6879  145.3298  162.9312 O.3     1  UNL1       -0.4404
     20 C         138.9337  144.6332  164.0248 C.2     1  UNL1        0.3413
     21 O         138.7068  145.1575  165.4117 O.2     1  UNL1       -0.2449
     22 C         142.4805  138.1176  165.4650 C.3     1  UNL1        0.1064
     23 C         143.0928  139.3821  165.9907 C.3     1  UNL1        0.1483
     24 O         144.2951  139.9709  165.3142 O.3     1  UNL1       -0.3786
     25 H         144.5464  139.4149  164.5601 H       1  UNL1        0.2108
     26 C         142.5027  140.0576  167.1930 C.ar    1  UNL1        0.0015
     27 C         142.7197  139.4797  168.5600 C.ar    1  UNL1       -0.0020
     28 C         142.1296  140.1553  169.7622 C.ar    1  UNL1        0.0060
     29 C         141.3225  141.4089  169.5973 C.ar    1  UNL1        0.0748
     30 C         141.1055  141.9868  168.2303 C.ar    1  UNL1        0.0233
     31 C         141.6956  141.3112  167.0281 C.ar    1  UNL1       -0.0238
     32 C         141.4786  141.8891  165.6610 C.3     1  UNL1        0.0306
     33 C         140.2712  143.2247  168.3774 C.3     1  UNL1        0.2352
     34 O         139.9726  143.4118  169.8356 O.3     1  UNL1       -0.4404
     35 C         140.6223  142.2896  170.5895 C.2     1  UNL1        0.3413
     36 O         140.5794  142.0841  172.0747 O.2     1  UNL1       -0.2449
@<TRIPOS>BOND
     1    11    12    1
     2    12    13   ar
     3    13     8    1
     4     8     9    1
     5     8     7    1
     6     7     1    1
     7     1     2    1
     8     2     3    1
     9     3     4    1
    10     4    22    1
    11    22    23    1
    12    23    24    1
    13    23    26    1
    14    26    27   ar
    15    27    28   ar
    16    28    29   ar
    17    29    30   ar
    18    30    31   ar
    19    31    32    1
    20    30    33    1
    21    33    34    1
    22    34    35    1
    23    35    36    2
    24     4     5    1
    25     5     6    1
    26    13    14   ar
    27    14    15   ar
    28    15    16   ar
    29    16    17   ar
    30    17    18    1
    31    18    19    1
    32    19    20    1
    33    20    21    2
    34    17    12   ar
    35     6     1    1
    36    20    16    1
    37    31    26   ar
    38    35    29    1
    39     9    10    1
    40    24    25    1
@<TRIPOS>MOLECULE
*****
 36 40 0 0 0
SMALL
GASTEIGER

@<TRIPOS>ATOM
      1 N         138.5672  140.6913  162.4431 N.3     1  UNL1       -0.2680
      2 C         139.6054  140.3968  161.4012 C.3     1  UNL1        0.0897
      3 C         140.1179  141.4979  160.5210 C.3     1  UNL1        0.0897
      4 N         139.5923  142.8934  160.6825 N.3     1  UNL1       -0.2680
      5 C         138.5542  143.1880  161.7244 C.3     1  UNL1        0.0897
      6 C         138.0416  142.0870  162.6047 C.3     1  UNL1        0.0897
      7 C         138.0546  139.5903  163.3234 C.3     1  UNL1        0.1064
      8 C         138.9831  138.8991  164.2774 C.3     1  UNL1        0.1483
      9 O         139.3022  137.4451  164.0927 O.3     1  UNL1       -0.3786
     10 H         139.9123  137.1569  164.7895 H       1  UNL1        0.2108
     11 C         137.8331  138.6479  167.0369 C.3     1  UNL1        0.0306
     12 C         139.0175  139.5363  166.7960 C.ar    1  UNL1       -0.0238
     13 C         139.5926  139.6619  165.4163 C.ar    1  UNL1        0.0015
     14 C         140.7769  140.5502  165.1753 C.ar    1  UNL1       -0.0020
     15 C         141.3863  141.3129  166.3141 C.ar    1  UNL1        0.0060
     16 C         140.8114  141.1874  167.6938 C.ar    1  UNL1        0.0748
     17 C         139.6269  140.2990  167.9348 C.ar    1  UNL1        0.0233
     18 C         139.2798  140.3744  169.3921 C.3     1  UNL1        0.2352
     19 O         140.2497  141.3093  170.0518 O.3     1  UNL1       -0.4404
     20 C         141.1963  141.8118  169.0022 C.2     1  UNL1        0.3413
     21 O         142.3288  142.7703  169.2224 O.2     1  UNL1       -0.2449
     22 C         140.1049  143.9945  159.8022 C.3     1  UNL1        0.1064
     23 C         141.3497  144.7404  160.1819 C.3     1  UNL1        0.1483
     24 O         141.8537  145.8516  159.3093 O.3     1  UNL1       -0.3786
     25 H         141.2634  145.9570  158.5469 H       1  UNL1        0.2108
     26 C         142.0904  144.3753  161.4341 C.ar    1  UNL1        0.0015
     27 C         141.6798  144.9694  162.7487 C.ar    1  UNL1       -0.0020
     28 C         142.4205  144.6042  164.0009 C.ar    1  UNL1        0.0060
     29 C         143.5719  143.6448  163.9383 C.ar    1  UNL1        0.0748
     30 C         143.9825  143.0506  162.6237 C.ar    1  UNL1        0.0233
     31 C         143.2417  143.4158  161.3715 C.ar    1  UNL1       -0.0238
     32 C         143.6523  142.8217  160.0569 C.3     1  UNL1        0.0306
     33 C         145.1483  142.1397  162.8707 C.3     1  UNL1        0.2352
     34 O         145.4582  142.1708  164.3380 O.3     1  UNL1       -0.4404
     35 C         144.4840  143.1010  164.9979 C.2     1  UNL1        0.3413
     36 O         144.4310  143.4298  166.4604 O.2     1  UNL1       -0.2449
@<TRIPOS>BOND
     1    11    12    1
     2    12    13   ar
     3    13     8    1
     4     8     9    1
     5     8     7    1
     6     7     1    1
     7     1     2    1
     8     2     3    1
     9     3     4    1
    10     4    22    1
    11    22    23    1
    12    23    24    1
    13    23    26    1
    14    26    27   ar
    15    27    28   ar
    16    28    29   ar
    17    29    30   ar
    18    30    31   ar
    19    31    32    1
    20    30    33    1
    21    33    34    1
    22    34    35    1
    23    35    36    2
    24     4     5    1
    25     5     6    1
    26    13    14   ar
    27    14    15   ar
    28    15    16   ar
    29    16    17   ar
    30    17    18    1
    31    18    19    1
    32    19    20    1
    33    20    21    2
    34    17    12   ar
    35     6     1    1
    36    20    16    1
    37    31    26   ar
    38    35    29    1
    39     9    10    1
    40    24    25    1
@<TRIPOS>MOLECULE
*****
 36 40 0 0 0
SMALL
GASTEIGER

@<TRIPOS>ATOM
      1 N         139.9804  142.4241  160.2077 N.3     1  UNL1       -0.2680
      2 C         138.9477  142.2522  161.2820 C.3     1  UNL1        0.0897
      3 C         138.6879  140.8934  161.8618 C.3     1  UNL1        0.0897
      4 N         139.4606  139.7066  161.3674 N.3     1  UNL1       -0.2680
      5 C         140.4932  139.8786  160.2931 C.3     1  UNL1        0.0897
      6 C         140.7532  141.2373  159.7132 C.3     1  UNL1        0.0897
      7 C         140.2403  143.7828  159.6278 C.3     1  UNL1        0.1064
      8 C         141.4047  144.5948  160.1123 C.3     1  UNL1        0.1483
      9 O         141.8834  145.7706  159.3134 O.3     1  UNL1       -0.3786
     10 H         142.6378  146.1818  159.7635 H       1  UNL1        0.2108
     11 C         143.8557  142.8653  160.0653 C.3     1  UNL1        0.0306
     12 C         143.3161  143.3661  161.3723 C.ar    1  UNL1       -0.0238
     13 C         142.0906  144.2309  161.3958 C.ar    1  UNL1        0.0015
     14 C         141.5511  144.7317  162.7026 C.ar    1  UNL1       -0.0020
     15 C         142.2369  144.3678  163.9861 C.ar    1  UNL1        0.0060
     16 C         143.4623  143.5031  163.9626 C.ar    1  UNL1        0.0748
     17 C         144.0019  143.0022  162.6557 C.ar    1  UNL1        0.0233
     18 C         145.2182  142.1729  162.9436 C.3     1  UNL1        0.2352
     19 O         145.4302  142.1611  164.4285 O.3     1  UNL1       -0.4404
     20 C         144.3451  142.9832  165.0583 C.2     1  UNL1        0.3413
     21 O         144.1729  143.2403  166.5260 O.2     1  UNL1       -0.2449
     22 C         139.2006  138.3479  161.9473 C.3     1  UNL1        0.1064
     23 C         140.0309  137.8500  163.0931 C.3     1  UNL1        0.1483
     24 O         141.0706  136.7937  162.8625 O.3     1  UNL1       -0.3786
     25 H         141.0762  136.5448  161.9250 H       1  UNL1        0.2108
     26 C         139.8213  138.4084  164.4694 C.ar    1  UNL1        0.0015
     27 C         138.6848  137.9141  165.3144 C.ar    1  UNL1       -0.0020
     28 C         138.4753  138.4726  166.6907 C.ar    1  UNL1        0.0060
     29 C         139.4024  139.5253  167.2220 C.ar    1  UNL1        0.0748
     30 C         140.5390  140.0195  166.3771 C.ar    1  UNL1        0.0233
     31 C         140.7484  139.4611  165.0008 C.ar    1  UNL1       -0.0238
     32 C         141.8850  139.9554  164.1558 C.3     1  UNL1        0.0306
     33 C         141.2842  141.0569  167.1635 C.3     1  UNL1        0.2352
     34 O         140.6081  141.2038  168.4945 O.3     1  UNL1       -0.4404
     35 C         139.4452  140.2572  168.5307 C.2     1  UNL1        0.3413
     36 O         138.4923  140.0745  169.6746 O.2     1  UNL1       -0.2449
@<TRIPOS>BOND
     1    11    12    1
     2    12    13   ar
     3    13     8    1
     4     8     9    1
     5     8     7    1
     6     7     1    1
     7     1     2    1
     8     2     3    1
     9     3     4    1
    10     4    22    1
    11    22    23    1
    12    23    24    1
    13    23    26    1
    14    26    27   ar
    15    27    28   ar
    16    28    29   ar
    17    29    30   ar
    18    30    31   ar
    19    31    32    1
    20    30    33    1
    21    33    34    1
    22    34    35    1
    23    35    36    2
    24     4     5    1
    25     5     6    1
    26    13    14   ar
    27    14    15   ar
    28    15    16   ar
    29    16    17   ar
    30    17    18    1
    31    18    19    1
    32    19    20    1
    33    20    21    2
    34    17    12   ar
    35     6     1    1
    36    20    16    1
    37    31    26   ar
    38    35    29    1
    39     9    10    1
    40    24    25    1
@<TRIPOS>MOLECULE
*****
 36 40 0 0 0
SMALL
GASTEIGER

@<TRIPOS>ATOM
      1 N         140.8488  138.2168  164.1494 N.3     1  UNL1       -0.2680
      2 C         140.8121  138.3402  162.6549 C.3     1  UNL1        0.0897
      3 C         142.0006  138.8823  161.9178 C.3     1  UNL1        0.0897
      4 N         143.2258  139.3011  162.6750 N.3     1  UNL1       -0.2680
      5 C         143.2626  139.1778  164.1695 C.3     1  UNL1        0.0897
      6 C         142.0741  138.6356  164.9067 C.3     1  UNL1        0.0897
      7 C         139.6604  137.6746  164.8867 C.3     1  UNL1        0.1064
      8 C         138.6731  138.6147  165.5124 C.3     1  UNL1        0.1483
      9 O         137.8395  138.1624  166.6746 O.3     1  UNL1       -0.3786
     10 H         137.2583  138.8860  166.9565 H       1  UNL1        0.2108
     11 C         139.9500  140.9224  166.9423 C.3     1  UNL1        0.0306
     12 C         139.1579  141.1610  165.6910 C.ar    1  UNL1       -0.0238
     13 C         138.5195  140.0071  164.9760 C.ar    1  UNL1        0.0015
     14 C         137.7275  140.2457  163.7248 C.ar    1  UNL1       -0.0020
     15 C         137.5738  141.6380  163.1884 C.ar    1  UNL1        0.0060
     16 C         138.2122  142.7919  163.9033 C.ar    1  UNL1        0.0748
     17 C         139.0043  142.5533  165.1546 C.ar    1  UNL1        0.0233
     18 C         139.5152  143.8777  165.6394 C.3     1  UNL1        0.2352
     19 O         139.0389  144.9347  164.6876 O.3     1  UNL1       -0.4404
     20 C         138.2336  144.2637  163.6147 C.2     1  UNL1        0.3413
     21 O         137.5668  144.9448  162.4565 O.2     1  UNL1       -0.2449
     22 C         144.4143  139.8433  161.9378 C.3     1  UNL1        0.1064
     23 C         144.7141  141.3126  161.9754 C.3     1  UNL1        0.1483
     24 O         145.8901  141.8182  162.7573 O.3     1  UNL1       -0.3786
     25 H         146.3464  141.0708  163.1745 H       1  UNL1        0.2108
     26 C         143.8379  142.2762  161.2313 C.ar    1  UNL1        0.0015
     27 C         143.9384  142.3822  159.7384 C.ar    1  UNL1       -0.0020
     28 C         143.0622  143.3457  158.9943 C.ar    1  UNL1        0.0060
     29 C         142.0855  144.2033  159.7430 C.ar    1  UNL1        0.0748
     30 C         141.9850  144.0973  161.2359 C.ar    1  UNL1        0.0233
     31 C         142.8612  143.1337  161.9800 C.ar    1  UNL1       -0.0238
     32 C         142.7607  143.0277  163.4729 C.3     1  UNL1        0.0306
     33 C         140.9365  145.0645  161.6997 C.3     1  UNL1        0.2352
     34 O         140.3890  145.7683  160.4934 O.3     1  UNL1       -0.4404
     35 C         141.0990  145.2361  159.2842 C.2     1  UNL1        0.3413
     36 O         140.8641  145.6618  157.8652 O.2     1  UNL1       -0.2449
@<TRIPOS>BOND
     1    11    12    1
     2    12    13   ar
     3    13     8    1
     4     8     9    1
     5     8     7    1
     6     7     1    1
     7     1     2    1
     8     2     3    1
     9     3     4    1
    10     4    22    1
    11    22    23    1
    12    23    24    1
    13    23    26    1
    14    26    27   ar
    15    27    28   ar
    16    28    29   ar
    17    29    30   ar
    18    30    31   ar
    19    31    32    1
    20    30    33    1
    21    33    34    1
    22    34    35    1
    23    35    36    2
    24     4     5    1
    25     5     6    1
    26    13    14   ar
    27    14    15   ar
    28    15    16   ar
    29    16    17   ar
    30    17    18    1
    31    18    19    1
    32    19    20    1
    33    20    21    2
    34    17    12   ar
    35     6     1    1
    36    20    16    1
    37    31    26   ar
    38    35    29    1
    39     9    10    1
    40    24    25    1
@<TRIPOS>MOLECULE
*****
 36 40 0 0 0
SMALL
GASTEIGER

@<TRIPOS>ATOM
      1 N         139.7111  138.5013  161.8602 N.3     1  UNL1       -0.2680
      2 C         141.0809  139.1124  161.8472 C.3     1  UNL1        0.0897
      3 C         141.9858  138.9500  163.0324 C.3     1  UNL1        0.0897
      4 N         141.5209  138.1765  164.2306 N.3     1  UNL1       -0.2680
      5 C         140.1511  137.5654  164.2436 C.3     1  UNL1        0.0897
      6 C         139.2461  137.7278  163.0584 C.3     1  UNL1        0.0897
      7 C         138.8061  138.6637  160.6750 C.3     1  UNL1        0.1064
      8 C         137.8189  139.7923  160.6343 C.3     1  UNL1        0.1483
      9 O         136.3997  139.5329  160.2235 O.3     1  UNL1       -0.3786
     10 H         135.8984  140.3629  160.2509 H       1  UNL1        0.2108
     11 C         137.4112  140.7942  163.4326 C.3     1  UNL1        0.0306
     12 C         138.0470  141.6813  162.4035 C.ar    1  UNL1       -0.0238
     13 C         138.2508  141.1804  161.0043 C.ar    1  UNL1        0.0015
     14 C         138.8866  142.0673  159.9753 C.ar    1  UNL1       -0.0020
     15 C         139.3185  143.4553  160.3454 C.ar    1  UNL1        0.0060
     16 C         139.1147  143.9563  161.7444 C.ar    1  UNL1        0.0748
     17 C         138.4789  143.0692  162.7735 C.ar    1  UNL1        0.0233
     18 C         138.4077  143.8323  164.0630 C.3     1  UNL1        0.2352
     19 O         138.9994  145.1909  163.8308 O.3     1  UNL1       -0.4404
     20 C         139.4364  145.2676  162.3979 C.2     1  UNL1        0.3413
     21 O         140.0817  146.4482  161.7349 O.2     1  UNL1       -0.2449
     22 C         142.4259  138.0141  165.4157 C.3     1  UNL1        0.1064
     23 C         143.1131  139.2106  166.0043 C.3     1  UNL1        0.1483
     24 O         144.4016  139.7012  165.4136 O.3     1  UNL1       -0.3786
     25 H         144.6491  139.1374  164.6640 H       1  UNL1        0.2108
     26 C         142.5118  139.9162  167.1834 C.ar    1  UNL1        0.0015
     27 C         142.6800  139.3500  168.5622 C.ar    1  UNL1       -0.0020
     28 C         142.0787  140.0558  169.7413 C.ar    1  UNL1        0.0060
     29 C         141.3091  141.3277  169.5415 C.ar    1  UNL1        0.0748
     30 C         141.1408  141.8939  168.1627 C.ar    1  UNL1        0.0233
     31 C         141.7422  141.1882  166.9837 C.ar    1  UNL1       -0.0238
     32 C         141.5740  141.7544  165.6049 C.3     1  UNL1        0.0306
     33 C         140.3361  143.1548  168.2745 C.3     1  UNL1        0.2352
     34 O         140.0069  143.3679  169.7224 O.3     1  UNL1       -0.4404
     35 C         140.6083  142.2387  170.5055 C.2     1  UNL1        0.3413
     36 O         140.5237  142.0531  171.9915 O.2     1  UNL1       -0.2449
@<TRIPOS>BOND
     1    11    12    1
     2    12    13   ar
     3    13     8    1
     4     8     9    1
     5     8     7    1
     6     7     1    1
     7     1     2    1
     8     2     3    1
     9     3     4    1
    10     4    22    1
    11    22    23    1
    12    23    24    1
    13    23    26    1
    14    26    27   ar
    15    27    28   ar
    16    28    29   ar
    17    29    30   ar
    18    30    31   ar
    19    31    32    1
    20    30    33    1
    21    33    34    1
    22    34    35    1
    23    35    36    2
    24     4     5    1
    25     5     6    1
    26    13    14   ar
    27    14    15   ar
    28    15    16   ar
    29    16    17   ar
    30    17    18    1
    31    18    19    1
    32    19    20    1
    33    20    21    2
    34    17    12   ar
    35     6     1    1
    36    20    16    1
    37    31    26   ar
    38    35    29    1
    39     9    10    1
    40    24    25    1
@<TRIPOS>MOLECULE
*****
 36 40 0 0 0
SMALL
GASTEIGER

@<TRIPOS>ATOM
      1 N         141.4062  137.8813  163.9894 N.3     1  UNL1       -0.2680
      2 C         141.4317  137.9442  162.4909 C.3     1  UNL1        0.0897
      3 C         142.5172  138.7067  161.7907 C.3     1  UNL1        0.0897
      4 N         143.5771  139.4063  162.5889 N.3     1  UNL1       -0.2680
      5 C         143.5516  139.3435  164.0874 C.3     1  UNL1        0.0897
      6 C         142.4661  138.5810  164.7877 C.3     1  UNL1        0.0897
      7 C         140.3208  137.1189  164.6897 C.3     1  UNL1        0.1064
      8 C         139.1096  137.8394  165.2034 C.3     1  UNL1        0.1483
      9 O         138.0270  137.0779  165.9092 O.3     1  UNL1       -0.3786
     10 H         137.3221  137.6891  166.1745 H       1  UNL1        0.2108
     11 C         137.9395  138.9268  162.6639 C.3     1  UNL1        0.0306
     12 C         138.3959  139.8653  163.7415 C.ar    1  UNL1       -0.0238
     13 C         138.9810  139.3216  165.0112 C.ar    1  UNL1        0.0015
     14 C         139.4374  140.2599  166.0887 C.ar    1  UNL1       -0.0020
     15 C         139.3088  141.7420  165.8966 C.ar    1  UNL1        0.0060
     16 C         138.7238  142.2857  164.6270 C.ar    1  UNL1        0.0748
     17 C         138.2673  141.3473  163.5494 C.ar    1  UNL1        0.0233
     18 C         137.7344  142.1697  162.4137 C.3     1  UNL1        0.2352
     19 O         137.8615  143.6163  162.7894 O.3     1  UNL1       -0.4404
     20 C         138.4729  143.6880  164.1573 C.2     1  UNL1        0.3413
     21 O         138.7797  144.9419  164.9213 O.2     1  UNL1       -0.2449
     22 C         144.6625  140.1688  161.8886 C.3     1  UNL1        0.1064
     23 C         144.8842  141.6185  162.2039 C.3     1  UNL1        0.1483
     24 O         146.2157  142.0789  162.7188 O.3     1  UNL1       -0.3786
     25 H         146.8153  141.3196  162.7891 H       1  UNL1        0.2108
     26 C         143.7744  142.6076  162.0043 C.ar    1  UNL1        0.0015
     27 C         143.0723  143.1968  163.1917 C.ar    1  UNL1       -0.0020
     28 C         141.9625  144.1860  162.9920 C.ar    1  UNL1        0.0060
     29 C         141.5548  144.5860  161.6050 C.ar    1  UNL1        0.0748
     30 C         142.2570  143.9968  160.4176 C.ar    1  UNL1        0.0233
     31 C         143.3668  143.0076  160.6173 C.ar    1  UNL1       -0.0238
     32 C         144.0689  142.4184  159.4300 C.3     1  UNL1        0.0306
     33 C         141.6407  144.5775  159.1795 C.3     1  UNL1        0.2352
     34 O         140.5577  145.5256  159.6017 O.3     1  UNL1       -0.4404
     35 C         140.5046  145.5309  161.1006 C.2     1  UNL1        0.3413
     36 O         139.5661  146.3390  161.9468 O.2     1  UNL1       -0.2449
@<TRIPOS>BOND
     1    11    12    1
     2    12    13   ar
     3    13     8    1
     4     8     9    1
     5     8     7    1
     6     7     1    1
     7     1     2    1
     8     2     3    1
     9     3     4    1
    10     4    22    1
    11    22    23    1
    12    23    24    1
    13    23    26    1
    14    26    27   ar
    15    27    28   ar
    16    28    29   ar
    17    29    30   ar
    18    30    31   ar
    19    31    32    1
    20    30    33    1
    21    33    34    1
    22    34    35    1
    23    35    36    2
    24     4     5    1
    25     5     6    1
    26    13    14   ar
    27    14    15   ar
    28    15    16   ar
    29    16    17   ar
    30    17    18    1
    31    18    19    1
    32    19    20    1
    33    20    21    2
    34    17    12   ar
    35     6     1    1
    36    20    16    1
    37    31    26   ar
    38    35    29    1
    39     9    10    1
    40    24    25    1
