@<TRIPOS>MOLECULE
*****
 35 38 0 0 0
SMALL
GASTEIGER

@<TRIPOS>ATOM
      1 C         139.3587  138.2109  164.0250 C.ar    1  UNL1        0.1534
      2 C         138.4952  138.1336  165.2491 C.ar    1  UNL1        0.0591
      3 C         138.8819  138.8851  166.4884 C.ar    1  UNL1        0.1072
      4 N         138.0184  138.8078  167.7125 N.ar    1  UNL1       -0.1477
      5 N         138.4050  139.5593  168.9518 N.ar    1  UNL1       -0.1421
      6 C         139.6552  140.3881  168.9669 C.ar    1  UNL1        0.1690
      7 C         140.5186  140.4655  167.7428 C.ar    1  UNL1        0.0740
      8 C         140.1320  139.7139  166.5035 C.ar    1  UNL1        0.0359
      9 C         140.9954  139.7913  165.2794 C.ar    1  UNL1        0.0204
     10 C         140.6088  139.0398  164.0402 C.ar    1  UNL1        0.0825
     11 N         141.4723  139.1171  162.8161 N.pl3   1  UNL1       -0.3037
     12 C         142.6130  138.1447  162.7618 C.3     1  UNL1        0.0923
     13 C         143.6441  137.9717  161.6861 C.3     1  UNL1        0.0387
     14 C         143.7890  138.7283  160.3991 C.3     1  UNL1        0.0739
     15 N         142.9387  139.8449  159.8699 N.3     1  UNL1       -0.2700
     16 C         143.3477  140.3991  158.5373 C.3     1  UNL1        0.0897
     17 C         141.7334  140.4806  160.4969 C.3     1  UNL1        0.0938
     18 C         141.0808  140.1567  161.8081 C.3     1  UNL1        0.1082
     19 C         140.0418  141.1396  170.2061 C.2     1  UNL1        0.2635
     20 N         140.3896  140.3917  171.4590 N.am    1  UNL1       -0.3240
     21 O         140.0808  142.6390  170.1925 O.2     1  UNL1       -0.2686
     22 H         140.3640  139.4075  171.4679 H       1  UNL1        0.1453
     23 H         140.6433  140.8849  172.2724 H       1  UNL1        0.1453
     24 C         138.0266  138.0769  161.7985 C.3     1  UNL1        0.2525
     25 O         138.9720  137.4594  162.7858 O.3     1  UNL1       -0.4701
     26 N         141.7687  141.2943  167.7579 N.pl3   1  UNL1       -0.3094
     27 H         142.3725  141.2603  168.5348 H       1  UNL1        0.1523
     28 C         142.0989  142.1750  166.5894 C.ar    1  UNL1        0.0761
     29 C         143.4938  142.1979  166.0382 C.ar    1  UNL1        0.0166
     30 C         143.8240  143.0786  164.8697 C.ar    1  UNL1       -0.0028
     31 C         142.7594  143.9363  164.2524 C.ar    1  UNL1       -0.0195
     32 C         143.0897  144.8169  163.0839 C.3     1  UNL1        0.0311
     33 C         141.3646  143.9133  164.8036 C.ar    1  UNL1        0.0267
     34 C         141.0343  143.0326  165.9722 C.ar    1  UNL1        0.1531
     35 F         139.6395  143.0096  166.5234 F       1  UNL1       -0.2029
@<TRIPOS>BOND
     1    24    25    1
     2    25     1    1
     3     1     2   ar
     4     2     3   ar
     5     3     4   ar
     6     4     5   ar
     7     5     6   ar
     8     6    19    1
     9    19    20   am
    10    19    21    2
    11     6     7   ar
    12     7    26    1
    13    26    28    1
    14    28    29   ar
    15    29    30   ar
    16    30    31   ar
    17    31    32    1
    18    31    33   ar
    19    33    34   ar
    20    34    35    1
    21     7     8   ar
    22     8     9   ar
    23     9    10   ar
    24    10    11    1
    25    11    12    1
    26    12    13    1
    27    13    14    1
    28    14    15    1
    29    15    16    1
    30    15    17    1
    31    17    18    1
    32    10     1   ar
    33    18    11    1
    34     8     3   ar
    35    34    28   ar
    36    20    22    1
    37    20    23    1
    38    26    27    1
@<TRIPOS>MOLECULE
*****
 35 38 0 0 0
SMALL
GASTEIGER

@<TRIPOS>ATOM
      1 C         138.1219  141.0668  162.9490 C.ar    1  UNL1        0.1534
      2 C         137.5906  140.1534  164.0136 C.ar    1  UNL1        0.0591
      3 C         138.2640  140.0906  165.3525 C.ar    1  UNL1        0.1072
      4 N         137.7326  139.1771  166.4171 N.ar    1  UNL1       -0.1477
      5 N         138.4060  139.1142  167.7560 N.ar    1  UNL1       -0.1421
      6 C         139.6108  139.9648  168.0302 C.ar    1  UNL1        0.1690
      7 C         140.1420  140.8782  166.9656 C.ar    1  UNL1        0.0740
      8 C         139.4687  140.9411  165.6268 C.ar    1  UNL1        0.0359
      9 C         139.9999  141.8545  164.5622 C.ar    1  UNL1        0.0204
     10 C         139.3265  141.9174  163.2233 C.ar    1  UNL1        0.0825
     11 N         139.8579  142.8309  162.1587 N.pl3   1  UNL1       -0.3037
     12 C         139.5020  144.2803  162.3078 C.3     1  UNL1        0.0923
     13 C         139.8752  145.4310  161.4208 C.3     1  UNL1        0.0387
     14 C         140.6964  145.4163  160.1656 C.3     1  UNL1        0.0739
     15 N         141.3472  144.2473  159.4875 N.3     1  UNL1       -0.2700
     16 C         142.1084  144.5631  158.2341 C.3     1  UNL1        0.0897
     17 C         141.3377  142.8044  159.8970 C.3     1  UNL1        0.0938
     18 C         140.6748  142.1740  161.0858 C.3     1  UNL1        0.1082
     19 C         140.2842  139.9020  169.3691 C.2     1  UNL1        0.2635
     20 N         139.4622  139.9221  170.6237 N.am    1  UNL1       -0.3240
     21 O         141.7795  139.8190  169.4534 O.2     1  UNL1       -0.2686
     22 H         138.4808  139.9765  170.5684 H       1  UNL1        0.1453
     23 H         139.9041  139.8808  171.5025 H       1  UNL1        0.1453
     24 C         137.6076  139.9996  160.6368 C.3     1  UNL1        0.2525
     25 O         137.4485  141.1297  161.6101 O.3     1  UNL1       -0.4701
     26 N         141.3467  141.7288  167.2399 N.pl3   1  UNL1       -0.3094
     27 H         141.3725  142.3024  168.0396 H       1  UNL1        0.1523
     28 C         142.5121  141.7054  166.2958 C.ar    1  UNL1        0.0761
     29 C         143.1246  142.9924  165.8283 C.ar    1  UNL1        0.0166
     30 C         144.2900  142.9690  164.8842 C.ar    1  UNL1       -0.0028
     31 C         144.8429  141.6586  164.4075 C.ar    1  UNL1       -0.0195
     32 C         146.0082  141.6352  163.4634 C.3     1  UNL1        0.0311
     33 C         144.2304  140.3716  164.8749 C.ar    1  UNL1        0.0267
     34 C         143.0650  140.3950  165.8191 C.ar    1  UNL1        0.1531
     35 F         142.4525  139.1080  166.2865 F       1  UNL1       -0.2029
@<TRIPOS>BOND
     1    24    25    1
     2    25     1    1
     3     1     2   ar
     4     2     3   ar
     5     3     4   ar
     6     4     5   ar
     7     5     6   ar
     8     6    19    1
     9    19    20   am
    10    19    21    2
    11     6     7   ar
    12     7    26    1
    13    26    28    1
    14    28    29   ar
    15    29    30   ar
    16    30    31   ar
    17    31    32    1
    18    31    33   ar
    19    33    34   ar
    20    34    35    1
    21     7     8   ar
    22     8     9   ar
    23     9    10   ar
    24    10    11    1
    25    11    12    1
    26    12    13    1
    27    13    14    1
    28    14    15    1
    29    15    16    1
    30    15    17    1
    31    17    18    1
    32    10     1   ar
    33    18    11    1
    34     8     3   ar
    35    34    28   ar
    36    20    22    1
    37    20    23    1
    38    26    27    1
@<TRIPOS>MOLECULE
*****
 35 38 0 0 0
SMALL
GASTEIGER

@<TRIPOS>ATOM
      1 C         139.0899  138.4136  163.9606 C.ar    1  UNL1        0.1534
      2 C         138.5590  138.2074  165.3483 C.ar    1  UNL1        0.0591
      3 C         138.9373  139.1582  166.4450 C.ar    1  UNL1        0.1072
      4 N         138.4063  138.9519  167.8327 N.ar    1  UNL1       -0.1477
      5 N         138.7846  139.9028  168.9294 N.ar    1  UNL1       -0.1421
      6 C         139.6938  141.0598  168.6385 C.ar    1  UNL1        0.1690
      7 C         140.2247  141.2660  167.2509 C.ar    1  UNL1        0.0740
      8 C         139.8464  140.3152  166.1541 C.ar    1  UNL1        0.0359
      9 C         140.3773  140.5214  164.7665 C.ar    1  UNL1        0.0204
     10 C         139.9991  139.5706  163.6697 C.ar    1  UNL1        0.0825
     11 N         140.5300  139.7769  162.2820 N.pl3   1  UNL1       -0.3037
     12 C         139.9140  140.9062  161.5107 C.3     1  UNL1        0.0923
     13 C         140.2227  141.3641  160.1160 C.3     1  UNL1        0.0387
     14 C         141.2235  140.8057  159.1483 C.3     1  UNL1        0.0739
     15 N         142.1629  139.6515  159.3362 N.3     1  UNL1       -0.2700
     16 C         143.0489  139.3365  158.1675 C.3     1  UNL1        0.0897
     17 C         142.3335  138.7707  160.5382 C.3     1  UNL1        0.0938
     18 C         141.6068  138.8265  161.8493 C.3     1  UNL1        0.1082
     19 C         140.0721  142.0107  169.7352 C.2     1  UNL1        0.2635
     20 N         140.4289  141.4846  171.0940 N.am    1  UNL1       -0.3240
     21 O         140.0936  143.4874  169.4733 O.2     1  UNL1       -0.2686
     22 H         140.4148  140.5154  171.2659 H       1  UNL1        0.1453
     23 H         140.6771  142.1087  171.8138 H       1  UNL1        0.1453
     24 C         137.7645  137.8997  161.7860 C.3     1  UNL1        0.2525
     25 O         138.7117  137.4628  162.8639 O.3     1  UNL1       -0.4701
     26 N         141.1339  142.4231  166.9600 N.pl3   1  UNL1       -0.3094
     27 H         141.9059  142.6015  167.5443 H       1  UNL1        0.1523
     28 C         140.8668  143.3083  165.7788 C.ar    1  UNL1        0.0761
     29 C         139.5182  143.9419  165.6062 C.ar    1  UNL1        0.0166
     30 C         139.2511  144.8272  164.4251 C.ar    1  UNL1       -0.0028
     31 C         140.3326  145.0788  163.4166 C.ar    1  UNL1       -0.0195
     32 C         140.0655  145.9640  162.2355 C.3     1  UNL1        0.0311
     33 C         141.6812  144.4452  163.5892 C.ar    1  UNL1        0.0267
     34 C         141.9483  143.5599  164.7704 C.ar    1  UNL1        0.1531
     35 F         143.2969  142.9263  164.9430 F       1  UNL1       -0.2029
@<TRIPOS>BOND
     1    24    25    1
     2    25     1    1
     3     1     2   ar
     4     2     3   ar
     5     3     4   ar
     6     4     5   ar
     7     5     6   ar
     8     6    19    1
     9    19    20   am
    10    19    21    2
    11     6     7   ar
    12     7    26    1
    13    26    28    1
    14    28    29   ar
    15    29    30   ar
    16    30    31   ar
    17    31    32    1
    18    31    33   ar
    19    33    34   ar
    20    34    35    1
    21     7     8   ar
    22     8     9   ar
    23     9    10   ar
    24    10    11    1
    25    11    12    1
    26    12    13    1
    27    13    14    1
    28    14    15    1
    29    15    16    1
    30    15    17    1
    31    17    18    1
    32    10     1   ar
    33    18    11    1
    34     8     3   ar
    35    34    28   ar
    36    20    22    1
    37    20    23    1
    38    26    27    1
@<TRIPOS>MOLECULE
*****
 35 38 0 0 0
SMALL
GASTEIGER

@<TRIPOS>ATOM
      1 C         139.4389  138.2616  162.6815 C.ar    1  UNL1        0.1534
      2 C         139.3144  138.0281  161.2051 C.ar    1  UNL1        0.0591
      3 C         138.9973  139.1726  160.2888 C.ar    1  UNL1        0.1072
      4 N         138.8729  138.9391  158.8123 N.ar    1  UNL1       -0.1477
      5 N         138.5558  140.0836  157.8961 N.ar    1  UNL1       -0.1421
      6 C         138.3633  141.4617  158.4564 C.ar    1  UNL1        0.1690
      7 C         138.4878  141.6952  159.9328 C.ar    1  UNL1        0.0740
      8 C         138.8048  140.5507  160.8491 C.ar    1  UNL1        0.0359
      9 C         138.9293  140.7842  162.3255 C.ar    1  UNL1        0.0204
     10 C         139.2463  139.6396  163.2417 C.ar    1  UNL1        0.0825
     11 N         139.3708  139.8732  164.7183 N.pl3   1  UNL1       -0.3037
     12 C         138.4156  139.1038  165.5817 C.3     1  UNL1        0.0923
     13 C         138.2878  139.1165  167.0762 C.3     1  UNL1        0.0387
     14 C         139.0835  139.9016  168.0763 C.3     1  UNL1        0.0739
     15 N         140.2037  140.8680  167.8290 N.3     1  UNL1       -0.2700
     16 C         140.8019  141.4978  169.0519 C.3     1  UNL1        0.0897
     17 C         140.8048  141.2880  166.5204 C.3     1  UNL1        0.0938
     18 C         140.4341  140.8452  165.1360 C.3     1  UNL1        0.1082
     19 C         138.0462  142.6063  157.5401 C.2     1  UNL1        0.2635
     20 N         136.8003  142.5758  156.7053 N.am    1  UNL1       -0.3240
     21 O         138.9750  143.7813  157.4587 O.2     1  UNL1       -0.2686
     22 H         136.1907  141.8046  156.7587 H       1  UNL1        0.1453
     23 H         136.5922  143.3270  156.1039 H       1  UNL1        0.1453
     24 C         141.1564  136.9229  164.0986 C.3     1  UNL1        0.2525
     25 O         139.7559  137.1170  163.5978 O.3     1  UNL1       -0.4701
     26 N         138.2952  143.0733  160.4930 N.pl3   1  UNL1       -0.3094
     27 H         137.4654  143.5690  160.3063 H       1  UNL1        0.1523
     28 C         139.3670  143.6960  161.3378 C.ar    1  UNL1        0.0761
     29 C         140.7937  143.6746  160.8752 C.ar    1  UNL1        0.0166
     30 C         141.8655  144.2973  161.7199 C.ar    1  UNL1       -0.0028
     31 C         141.5105  144.9413  163.0273 C.ar    1  UNL1       -0.0195
     32 C         142.5823  145.5640  163.8720 C.3     1  UNL1        0.0311
     33 C         140.0838  144.9627  163.4899 C.ar    1  UNL1        0.0267
     34 C         139.0120  144.3400  162.6451 C.ar    1  UNL1        0.1531
     35 F         137.5853  144.3614  163.1078 F       1  UNL1       -0.2029
@<TRIPOS>BOND
     1    24    25    1
     2    25     1    1
     3     1     2   ar
     4     2     3   ar
     5     3     4   ar
     6     4     5   ar
     7     5     6   ar
     8     6    19    1
     9    19    20   am
    10    19    21    2
    11     6     7   ar
    12     7    26    1
    13    26    28    1
    14    28    29   ar
    15    29    30   ar
    16    30    31   ar
    17    31    32    1
    18    31    33   ar
    19    33    34   ar
    20    34    35    1
    21     7     8   ar
    22     8     9   ar
    23     9    10   ar
    24    10    11    1
    25    11    12    1
    26    12    13    1
    27    13    14    1
    28    14    15    1
    29    15    16    1
    30    15    17    1
    31    17    18    1
    32    10     1   ar
    33    18    11    1
    34     8     3   ar
    35    34    28   ar
    36    20    22    1
    37    20    23    1
    38    26    27    1
@<TRIPOS>MOLECULE
*****
 35 38 0 0 0
SMALL
GASTEIGER

@<TRIPOS>ATOM
      1 C         143.6981  142.2387  164.5469 C.ar    1  UNL1        0.1534
      2 C         143.6257  142.6591  165.9849 C.ar    1  UNL1        0.0591
      3 C         142.6422  142.0046  166.9091 C.ar    1  UNL1        0.1072
      4 N         142.5698  142.4250  168.3472 N.ar    1  UNL1       -0.1477
      5 N         141.5862  141.7705  169.2714 N.ar    1  UNL1       -0.1421
      6 C         140.6750  140.6954  168.7575 C.ar    1  UNL1        0.1690
      7 C         140.7474  140.2750  167.3194 C.ar    1  UNL1        0.0740
      8 C         141.7310  140.9296  166.3953 C.ar    1  UNL1        0.0359
      9 C         141.8034  140.5091  164.9572 C.ar    1  UNL1        0.0204
     10 C         142.7870  141.1637  164.0331 C.ar    1  UNL1        0.0825
     11 N         142.8593  140.7432  162.5950 N.pl3   1  UNL1       -0.3037
     12 C         143.8238  139.6361  162.2884 C.3     1  UNL1        0.0923
     13 C         144.1247  138.9978  160.9647 C.3     1  UNL1        0.0387
     14 C         143.5356  139.3091  159.6208 C.3     1  UNL1        0.0739
     15 N         142.5000  140.3354  159.2686 N.3     1  UNL1       -0.2700
     16 C         142.1158  140.4020  157.8202 C.3     1  UNL1        0.0897
     17 C         141.7978  141.3041  160.1733 C.3     1  UNL1        0.0938
     18 C         141.9577  141.4856  161.6537 C.3     1  UNL1        0.1082
     19 C         139.6914  140.0408  169.6816 C.2     1  UNL1        0.2635
     20 N         140.0628  139.7837  171.1120 N.am    1  UNL1       -0.3240
     21 O         138.3365  139.6434  169.1755 O.2     1  UNL1       -0.2686
     22 H         140.9521  140.0445  171.4443 H       1  UNL1        0.1453
     23 H         139.4172  139.3540  171.7186 H       1  UNL1        0.1453
     24 C         144.2890  144.1226  162.8582 C.3     1  UNL1        0.2525
     25 O         144.6817  142.8933  163.6228 O.3     1  UNL1       -0.4701
     26 N         139.8362  139.2000  166.8056 N.pl3   1  UNL1       -0.3094
     27 H         139.6239  138.4227  167.3713 H       1  UNL1        0.1523
     28 C         139.2485  139.3092  165.4298 C.ar    1  UNL1        0.0761
     29 C         138.4004  140.4924  165.0683 C.ar    1  UNL1        0.0166
     30 C         137.8127  140.6017  163.6926 C.ar    1  UNL1       -0.0028
     31 C         138.0732  139.5277  162.6782 C.ar    1  UNL1       -0.0195
     32 C         137.4855  139.6370  161.3025 C.3     1  UNL1        0.0311
     33 C         138.9213  138.3445  163.0397 C.ar    1  UNL1        0.0267
     34 C         139.5090  138.2353  164.4155 C.ar    1  UNL1        0.1531
     35 F         140.3571  137.0520  164.7770 F       1  UNL1       -0.2029
@<TRIPOS>BOND
     1    24    25    1
     2    25     1    1
     3     1     2   ar
     4     2     3   ar
     5     3     4   ar
     6     4     5   ar
     7     5     6   ar
     8     6    19    1
     9    19    20   am
    10    19    21    2
    11     6     7   ar
    12     7    26    1
    13    26    28    1
    14    28    29   ar
    15    29    30   ar
    16    30    31   ar
    17    31    32    1
    18    31    33   ar
    19    33    34   ar
    20    34    35    1
    21     7     8   ar
    22     8     9   ar
    23     9    10   ar
    24    10    11    1
    25    11    12    1
    26    12    13    1
    27    13    14    1
    28    14    15    1
    29    15    16    1
    30    15    17    1
    31    17    18    1
    32    10     1   ar
    33    18    11    1
    34     8     3   ar
    35    34    28   ar
    36    20    22    1
    37    20    23    1
    38    26    27    1
@<TRIPOS>MOLECULE
*****
 35 38 0 0 0
SMALL
GASTEIGER

@<TRIPOS>ATOM
      1 C         143.4841  143.3575  164.3517 C.ar    1  UNL1        0.1534
      2 C         143.9822  143.1701  165.7541 C.ar    1  UNL1        0.0591
      3 C         143.0863  142.5647  166.7937 C.ar    1  UNL1        0.1072
      4 N         143.5845  142.3774  168.1961 N.ar    1  UNL1       -0.1477
      5 N         142.6886  141.7719  169.2357 N.ar    1  UNL1       -0.1421
      6 C         141.2944  141.3538  168.8729 C.ar    1  UNL1        0.1690
      7 C         140.7962  141.5412  167.4705 C.ar    1  UNL1        0.0740
      8 C         141.6922  142.1466  166.4309 C.ar    1  UNL1        0.0359
      9 C         141.1940  142.3340  165.0285 C.ar    1  UNL1        0.0204
     10 C         142.0900  142.9394  163.9889 C.ar    1  UNL1        0.0825
     11 N         141.5917  143.1267  162.5865 N.pl3   1  UNL1       -0.3037
     12 C         141.3224  141.8672  161.8178 C.3     1  UNL1        0.0923
     13 C         140.8236  141.7187  160.4110 C.3     1  UNL1        0.0387
     14 C         140.4708  142.7931  159.4255 C.3     1  UNL1        0.0739
     15 N         140.5298  144.2813  159.6034 N.3     1  UNL1       -0.2700
     16 C         140.1065  145.0959  158.4170 C.3     1  UNL1        0.0897
     17 C         140.9561  145.0628  160.8106 C.3     1  UNL1        0.0938
     18 C         141.4287  144.5489  162.1383 C.3     1  UNL1        0.1082
     19 C         140.3985  140.7484  169.9125 C.2     1  UNL1        0.2635
     20 N         140.7757  139.4511  170.5642 N.am    1  UNL1       -0.3240
     21 O         139.1254  141.4403  170.3003 O.2     1  UNL1       -0.2686
     22 H         141.6113  138.9970  170.3096 H       1  UNL1        0.1453
     23 H         140.1877  139.0537  171.2465 H       1  UNL1        0.1453
     24 C         144.8761  143.1262  162.1703 C.3     1  UNL1        0.2525
     25 O         144.3800  143.9629  163.3121 O.3     1  UNL1       -0.4701
     26 N         139.4021  141.1231  167.1077 N.pl3   1  UNL1       -0.3094
     27 H         138.6450  141.3854  167.6797 H       1  UNL1        0.1523
     28 C         139.1616  140.3054  165.8734 C.ar    1  UNL1        0.0761
     29 C         139.7926  138.9515  165.7359 C.ar    1  UNL1        0.0166
     30 C         139.5521  138.1338  164.5017 C.ar    1  UNL1       -0.0028
     31 C         138.6805  138.6698  163.4048 C.ar    1  UNL1       -0.0195
     32 C         138.4400  137.8521  162.1706 C.3     1  UNL1        0.0311
     33 C         138.0495  140.0237  163.5423 C.ar    1  UNL1        0.0267
     34 C         138.2900  140.8414  164.7766 C.ar    1  UNL1        0.1531
     35 F         137.6590  142.1953  164.9141 F       1  UNL1       -0.2029
@<TRIPOS>BOND
     1    24    25    1
     2    25     1    1
     3     1     2   ar
     4     2     3   ar
     5     3     4   ar
     6     4     5   ar
     7     5     6   ar
     8     6    19    1
     9    19    20   am
    10    19    21    2
    11     6     7   ar
    12     7    26    1
    13    26    28    1
    14    28    29   ar
    15    29    30   ar
    16    30    31   ar
    17    31    32    1
    18    31    33   ar
    19    33    34   ar
    20    34    35    1
    21     7     8   ar
    22     8     9   ar
    23     9    10   ar
    24    10    11    1
    25    11    12    1
    26    12    13    1
    27    13    14    1
    28    14    15    1
    29    15    16    1
    30    15    17    1
    31    17    18    1
    32    10     1   ar
    33    18    11    1
    34     8     3   ar
    35    34    28   ar
    36    20    22    1
    37    20    23    1
    38    26    27    1
@<TRIPOS>MOLECULE
*****
 35 38 0 0 0
SMALL
GASTEIGER

@<TRIPOS>ATOM
      1 C         144.1105  139.7577  162.7298 C.ar    1  UNL1        0.1534
      2 C         144.3300  139.4016  161.2893 C.ar    1  UNL1        0.0591
      3 C         143.1550  139.1554  160.3901 C.ar    1  UNL1        0.1072
      4 N         143.3746  138.7993  158.9496 N.ar    1  UNL1       -0.1477
      5 N         142.1995  138.5530  158.0503 N.ar    1  UNL1       -0.1421
      6 C         140.8049  138.6629  158.5916 C.ar    1  UNL1        0.1690
      7 C         140.5853  139.0190  160.0321 C.ar    1  UNL1        0.0740
      8 C         141.7604  139.2652  160.9313 C.ar    1  UNL1        0.0359
      9 C         141.5408  139.6213  162.3718 C.ar    1  UNL1        0.0204
     10 C         142.7159  139.8675  163.2710 C.ar    1  UNL1        0.0825
     11 N         142.4963  140.2236  164.7115 N.pl3   1  UNL1       -0.3037
     12 C         141.9532  141.5984  164.9666 C.3     1  UNL1        0.0923
     13 C         141.6286  142.2469  166.2797 C.3     1  UNL1        0.0387
     14 C         141.7668  141.6808  167.6618 C.3     1  UNL1        0.0739
     15 N         142.2637  140.3264  168.0724 N.3     1  UNL1       -0.2700
     16 C         142.2815  140.0595  169.5484 C.3     1  UNL1        0.0897
     17 C         142.7453  139.2036  167.2022 C.3     1  UNL1        0.0938
     18 C         142.8488  139.1578  165.7064 C.3     1  UNL1        0.1082
     19 C         139.6298  138.4167  157.6924 C.2     1  UNL1        0.2635
     20 N         139.5402  137.1414  156.9077 N.am    1  UNL1       -0.3240
     21 O         138.5445  139.4456  157.5778 O.2     1  UNL1       -0.2686
     22 H         140.2525  136.4660  156.9829 H       1  UNL1        0.1453
     23 H         138.7689  136.9798  156.3175 H       1  UNL1        0.1453
     24 C         145.7839  141.4019  163.8461 C.3     1  UNL1        0.2525
     25 O         145.2855  140.0039  163.6290 O.3     1  UNL1       -0.4701
     26 N         139.1907  139.1288  160.5733 N.pl3   1  UNL1       -0.3094
     27 H         138.5574  138.3842  160.4567 H       1  UNL1        0.1523
     28 C         138.7611  140.3733  161.2923 C.ar    1  UNL1        0.0761
     29 C         138.9303  141.7130  160.6392 C.ar    1  UNL1        0.0166
     30 C         138.5007  142.9574  161.3581 C.ar    1  UNL1       -0.0028
     31 C         137.9018  142.8621  162.7301 C.ar    1  UNL1       -0.0195
     32 C         137.4722  144.1065  163.4490 C.3     1  UNL1        0.0311
     33 C         137.7325  141.5224  163.3831 C.ar    1  UNL1        0.0267
     34 C         138.1622  140.2779  162.6642 C.ar    1  UNL1        0.1531
     35 F         137.9929  138.9382  163.3172 F       1  UNL1       -0.2029
@<TRIPOS>BOND
     1    24    25    1
     2    25     1    1
     3     1     2   ar
     4     2     3   ar
     5     3     4   ar
     6     4     5   ar
     7     5     6   ar
     8     6    19    1
     9    19    20   am
    10    19    21    2
    11     6     7   ar
    12     7    26    1
    13    26    28    1
    14    28    29   ar
    15    29    30   ar
    16    30    31   ar
    17    31    32    1
    18    31    33   ar
    19    33    34   ar
    20    34    35    1
    21     7     8   ar
    22     8     9   ar
    23     9    10   ar
    24    10    11    1
    25    11    12    1
    26    12    13    1
    27    13    14    1
    28    14    15    1
    29    15    16    1
    30    15    17    1
    31    17    18    1
    32    10     1   ar
    33    18    11    1
    34     8     3   ar
    35    34    28   ar
    36    20    22    1
    37    20    23    1
    38    26    27    1
@<TRIPOS>MOLECULE
*****
 35 38 0 0 0
SMALL
GASTEIGER

@<TRIPOS>ATOM
      1 C         139.1574  143.4042  163.9789 C.ar    1  UNL1        0.1534
      2 C         139.4485  143.7908  165.3987 C.ar    1  UNL1        0.0591
      3 C         140.0080  142.7771  166.3523 C.ar    1  UNL1        0.1072
      4 N         140.2992  143.1638  167.7721 N.ar    1  UNL1       -0.1477
      5 N         140.8587  142.1501  168.7258 N.ar    1  UNL1       -0.1421
      6 C         141.1271  140.7498  168.2596 C.ar    1  UNL1        0.1690
      7 C         140.8359  140.3633  166.8399 C.ar    1  UNL1        0.0740
      8 C         140.2764  141.3769  165.8862 C.ar    1  UNL1        0.0359
      9 C         139.9852  140.9903  164.4665 C.ar    1  UNL1        0.0204
     10 C         139.4257  142.0040  163.5128 C.ar    1  UNL1        0.0825
     11 N         139.1346  141.6173  162.0930 N.pl3   1  UNL1       -0.3037
     12 C         137.9899  140.6676  161.8988 C.3     1  UNL1        0.0923
     13 C         137.4546  140.0975  160.6187 C.3     1  UNL1        0.0387
     14 C         137.9317  140.3365  159.2168 C.3     1  UNL1        0.0739
     15 N         139.0620  141.2044  158.7487 N.3     1  UNL1       -0.2700
     16 C         139.2901  141.2327  157.2664 C.3     1  UNL1        0.0897
     17 C         139.9943  142.0478  159.5668 C.3     1  UNL1        0.0938
     18 C         140.0266  142.2316  161.0552 C.3     1  UNL1        0.1082
     19 C         141.6866  139.7362  169.2133 C.2     1  UNL1        0.2635
     20 N         140.9479  139.4073  170.4768 N.am    1  UNL1       -0.3240
     21 O         142.9847  139.0514  168.9035 O.2     1  UNL1       -0.2686
     22 H         140.0959  139.8568  170.6801 H       1  UNL1        0.1453
     23 H         141.3151  138.7420  171.1027 H       1  UNL1        0.1453
     24 C         139.4787  145.5046  162.4840 C.3     1  UNL1        0.2525
     25 O         138.5979  144.4179  163.0253 O.3     1  UNL1       -0.4701
     26 N         141.1043  138.9630  166.3738 N.pl3   1  UNL1       -0.3094
     27 H         140.7986  138.1978  166.9125 H       1  UNL1        0.1523
     28 C         141.8384  138.7287  165.0868 C.ar    1  UNL1        0.0761
     29 C         143.2080  139.3073  164.8885 C.ar    1  UNL1        0.0166
     30 C         143.9420  139.0730  163.6016 C.ar    1  UNL1       -0.0028
     31 C         143.3065  138.2600  162.5129 C.ar    1  UNL1       -0.0195
     32 C         144.0406  138.0256  161.2260 C.3     1  UNL1        0.0311
     33 C         141.9369  137.6813  162.7112 C.ar    1  UNL1        0.0267
     34 C         141.2028  137.9156  163.9982 C.ar    1  UNL1        0.1531
     35 F         139.8332  137.3370  164.1965 F       1  UNL1       -0.2029
@<TRIPOS>BOND
     1    24    25    1
     2    25     1    1
     3     1     2   ar
     4     2     3   ar
     5     3     4   ar
     6     4     5   ar
     7     5     6   ar
     8     6    19    1
     9    19    20   am
    10    19    21    2
    11     6     7   ar
    12     7    26    1
    13    26    28    1
    14    28    29   ar
    15    29    30   ar
    16    30    31   ar
    17    31    32    1
    18    31    33   ar
    19    33    34   ar
    20    34    35    1
    21     7     8   ar
    22     8     9   ar
    23     9    10   ar
    24    10    11    1
    25    11    12    1
    26    12    13    1
    27    13    14    1
    28    14    15    1
    29    15    16    1
    30    15    17    1
    31    17    18    1
    32    10     1   ar
    33    18    11    1
    34     8     3   ar
    35    34    28   ar
    36    20    22    1
    37    20    23    1
    38    26    27    1
@<TRIPOS>MOLECULE
*****
 35 38 0 0 0
SMALL
GASTEIGER

@<TRIPOS>ATOM
      1 C         139.3617  139.0002  166.0429 C.ar    1  UNL1        0.1534
      2 C         138.7670  138.4005  164.8033 C.ar    1  UNL1        0.0591
      3 C         139.5484  138.3963  163.5229 C.ar    1  UNL1        0.1072
      4 N         138.9536  137.7965  162.2833 N.ar    1  UNL1       -0.1477
      5 N         139.7350  137.7924  161.0029 N.ar    1  UNL1       -0.1421
      6 C         141.1111  138.3880  160.9621 C.ar    1  UNL1        0.1690
      7 C         141.7058  138.9877  162.2017 C.ar    1  UNL1        0.0740
      8 C         140.9244  138.9919  163.4821 C.ar    1  UNL1        0.0359
      9 C         141.5191  139.5916  164.7217 C.ar    1  UNL1        0.0204
     10 C         140.7377  139.5958  166.0021 C.ar    1  UNL1        0.0825
     11 N         141.3325  140.1955  167.2417 N.pl3   1  UNL1       -0.3037
     12 C         142.0540  139.2401  168.1453 C.3     1  UNL1        0.0923
     13 C         142.7484  139.5247  169.4442 C.3     1  UNL1        0.0387
     14 C         142.8925  140.8349  170.1602 C.3     1  UNL1        0.0739
     15 N         142.3780  142.1841  169.7542 N.3     1  UNL1       -0.2700
     16 C         142.6906  143.3099  170.6949 C.3     1  UNL1        0.0897
     17 C         141.5923  142.5564  168.5320 C.3     1  UNL1        0.0938
     18 C         141.1269  141.6714  167.4138 C.3     1  UNL1        0.1082
     19 C         141.8925  138.3838  159.6817 C.2     1  UNL1        0.2635
     20 N         141.1968  138.6400  158.3777 N.am    1  UNL1       -0.3240
     21 O         143.3695  138.1235  159.7053 O.2     1  UNL1       -0.2686
     22 H         140.2274  138.8109  158.3622 H       1  UNL1        0.1453
     23 H         141.7096  138.6373  157.5373 H       1  UNL1        0.1453
     24 C         137.3083  138.2163  167.4283 C.3     1  UNL1        0.2525
     25 O         138.5803  139.0044  167.3233 O.3     1  UNL1       -0.4701
     26 N         143.0819  139.5833  162.1609 N.pl3   1  UNL1       -0.3094
     27 H         143.8506  139.0287  161.8949 H       1  UNL1        0.1523
     28 C         143.2868  141.0239  162.5254 C.ar    1  UNL1        0.0761
     29 C         142.3622  142.0734  161.9835 C.ar    1  UNL1        0.0166
     30 C         142.5670  143.5139  162.3479 C.ar    1  UNL1       -0.0028
     31 C         143.6965  143.9050  163.2544 C.ar    1  UNL1       -0.0195
     32 C         143.9013  145.3455  163.6188 C.3     1  UNL1        0.0311
     33 C         144.6210  142.8555  163.7963 C.ar    1  UNL1        0.0267
     34 C         144.4161  141.4149  163.4318 C.ar    1  UNL1        0.1531
     35 F         145.3407  140.3653  163.9737 F       1  UNL1       -0.2029
@<TRIPOS>BOND
     1    24    25    1
     2    25     1    1
     3     1     2   ar
     4     2     3   ar
     5     3     4   ar
     6     4     5   ar
     7     5     6   ar
     8     6    19    1
     9    19    20   am
    10    19    21    2
    11     6     7   ar
    12     7    26    1
    13    26    28    1
    14    28    29   ar
    15    29    30   ar
    16    30    31   ar
    17    31    32    1
    18    31    33   ar
    19    33    34   ar
    20    34    35    1
    21     7     8   ar
    22     8     9   ar
    23     9    10   ar
    24    10    11    1
    25    11    12    1
    26    12    13    1
    27    13    14    1
    28    14    15    1
    29    15    16    1
    30    15    17    1
    31    17    18    1
    32    10     1   ar
    33    18    11    1
    34     8     3   ar
    35    34    28   ar
    36    20    22    1
    37    20    23    1
    38    26    27    1
