@<TRIPOS>MOLECULE
*****
 38 40 0 0 0
SMALL
GASTEIGER

@<TRIPOS>ATOM
      1 N         139.0398  139.1774  164.7527 N.3     1  UNL1       -0.2664
      2 C         139.5554  137.7912  164.5026 C.3     1  UNL1        0.1058
      3 C         140.9803  137.5858  164.0809 C.3     1  UNL1        0.1700
      4 O         141.2939  136.7310  162.8889 O.3     1  UNL1       -0.3793
      5 H         140.4688  136.3905  162.5092 H       1  UNL1        0.2106
      6 C         142.0915  138.2352  164.8514 C.3     1  UNL1        0.2358
      7 O         143.2711  138.8106  164.1252 O.3     1  UNL1       -0.4728
      8 C         142.9458  142.8346  162.1375 C.ar    1  UNL1        0.0646
      9 C         142.4692  141.6046  161.4234 C.ar    1  UNL1        0.0190
     10 C         142.5777  140.2633  162.0860 C.ar    1  UNL1        0.0382
     11 C         143.1627  140.1519  163.4626 C.ar    1  UNL1        0.1388
     12 C         143.6393  141.3819  164.1767 C.ar    1  UNL1        0.0382
     13 C         143.5309  142.7232  163.5141 C.ar    1  UNL1        0.0190
     14 N         142.8374  144.1760  161.4749 N.pl3   1  UNL1       -0.2187
     15 H         143.5751  144.8235  161.5506 H       1  UNL1        0.1734
     16 C         140.3726  144.8856  159.9188 C.3     1  UNL1        0.1996
     17 S         141.6050  144.5308  160.6969 S.O2    1  UNL1        0.0558
     18 O         142.3908  144.4624  159.4210 O.2     1  UNL1       -0.1544
     19 O         140.8193  144.5991  161.9728 O.2     1  UNL1       -0.1544
     20 C         138.2538  139.4723  165.9957 C.3     1  UNL1        0.0772
     21 C         138.8266  139.1405  167.3417 C.3     1  UNL1        0.0437
     22 C         139.6550  140.1537  168.0747 C.ar    1  UNL1       -0.0199
     23 C         139.2249  140.6366  169.4282 C.ar    1  UNL1       -0.0033
     24 C         140.0533  141.6497  170.1611 C.ar    1  UNL1        0.0119
     25 C         141.3118  142.1800  169.5406 C.ar    1  UNL1        0.0682
     26 CL        142.1402  143.1932  170.2737 Cl      1  UNL1       -0.0814
     27 C         141.7419  141.6971  168.1872 C.ar    1  UNL1        0.0679
     28 CL        143.0004  142.2274  167.5668 Cl      1  UNL1       -0.0814
     29 C         140.9135  140.6840  167.4543 C.ar    1  UNL1        0.0080
     30 C         139.3101  140.2688  163.7597 C.3     1  UNL1        0.1022
     31 C         139.0514  141.6995  164.1287 C.ar    1  UNL1        0.0276
     32 C         140.1201  142.5039  164.8077 C.ar    1  UNL1        0.0001
     33 C         139.8613  143.9346  165.1767 C.ar    1  UNL1       -0.0001
     34 C         138.5340  144.5609  164.8667 C.ar    1  UNL1        0.0031
     35 C         137.4655  143.7564  164.1877 C.ar    1  UNL1        0.0363
     36 C         137.7242  142.3257  163.8187 C.ar    1  UNL1        0.1309
     37 O         136.6556  141.5213  163.1397 O.3     1  UNL1       -0.5058
     38 H         135.8265  141.9125  162.9461 H       1  UNL1        0.2922
@<TRIPOS>BOND
     1    16    17    1
     2    17    18    2
     3    17    19    2
     4    17    14    1
     5    14     8    1
     6     8     9   ar
     7     9    10   ar
     8    10    11   ar
     9    11     7    1
    10     7     6    1
    11     6     3    1
    12     3     4    1
    13     3     2    1
    14     2     1    1
    15     1    20    1
    16    20    21    1
    17    21    22    1
    18    22    23   ar
    19    23    24   ar
    20    24    25   ar
    21    25    26    1
    22    25    27   ar
    23    27    28    1
    24    27    29   ar
    25     1    30    1
    26    30    31    1
    27    31    32   ar
    28    32    33   ar
    29    33    34   ar
    30    34    35   ar
    31    35    36   ar
    32    36    37    1
    33    11    12   ar
    34    12    13   ar
    35    13     8   ar
    36    29    22   ar
    37    36    31   ar
    38    14    15    1
    39     4     5    1
    40    37    38    1
@<TRIPOS>MOLECULE
*****
 38 40 0 0 0
SMALL
GASTEIGER

@<TRIPOS>ATOM
      1 N         142.6974  139.8477  164.3609 N.3     1  UNL1       -0.2664
      2 C         142.8922  138.5242  163.6825 C.3     1  UNL1        0.1058
      3 C         141.7148  137.6289  163.4328 C.3     1  UNL1        0.1700
      4 O         141.4211  137.1460  162.0434 O.3     1  UNL1       -0.3793
      5 H         142.0832  137.5023  161.4305 H       1  UNL1        0.2106
      6 C         140.8313  137.2164  164.5726 C.3     1  UNL1        0.2358
      7 O         139.3557  137.4788  164.5108 O.3     1  UNL1       -0.4728
      8 C         137.8425  141.6300  163.6578 C.ar    1  UNL1        0.0646
      9 C         137.8525  140.5972  162.5702 C.ar    1  UNL1        0.0190
     10 C         138.3569  139.2134  162.8545 C.ar    1  UNL1        0.0382
     11 C         138.8513  138.8626  164.2265 C.ar    1  UNL1        0.1388
     12 C         138.8413  139.8954  165.3141 C.ar    1  UNL1        0.0382
     13 C         138.3369  141.2791  165.0298 C.ar    1  UNL1        0.0190
     14 N         137.3381  143.0138  163.3735 N.pl3   1  UNL1       -0.2187
     15 H         136.3800  143.2182  163.4714 H       1  UNL1        0.1734
     16 C         139.2486  145.1582  162.5067 C.3     1  UNL1        0.1996
     17 S         138.2933  144.0859  162.9401 S.O2    1  UNL1        0.0558
     18 O         138.4541  144.5194  164.3670 O.2     1  UNL1       -0.1544
     19 O         138.1324  143.6525  161.5132 O.2     1  UNL1       -0.1544
     20 C         143.2491  140.0734  165.7373 C.3     1  UNL1        0.0772
     21 C         142.5477  139.4955  166.9306 C.3     1  UNL1        0.0437
     22 C         141.8122  140.3968  167.8776 C.ar    1  UNL1       -0.0199
     23 C         142.3535  141.7609  168.1877 C.ar    1  UNL1       -0.0033
     24 C         141.6180  142.6622  169.1346 C.ar    1  UNL1        0.0119
     25 C         140.3411  142.1994  169.7714 C.ar    1  UNL1        0.0682
     26 CL        139.6056  143.1007  170.7183 Cl      1  UNL1       -0.0814
     27 C         139.7998  140.8353  169.4613 C.ar    1  UNL1        0.0679
     28 CL        138.5230  140.3725  170.0981 Cl      1  UNL1       -0.0814
     29 C         140.5354  139.9340  168.5144 C.ar    1  UNL1        0.0080
     30 C         141.9507  140.9456  163.6628 C.3     1  UNL1        0.1022
     31 C         142.5901  142.2905  163.4824 C.ar    1  UNL1        0.0276
     32 C         143.7089  142.4630  162.4982 C.ar    1  UNL1        0.0001
     33 C         144.3484  143.8078  162.3178 C.ar    1  UNL1       -0.0001
     34 C         143.8689  144.9801  163.1215 C.ar    1  UNL1        0.0031
     35 C         142.7501  144.8076  164.1056 C.ar    1  UNL1        0.0363
     36 C         142.1107  143.4627  164.2861 C.ar    1  UNL1        0.1309
     37 O         140.9919  143.2902  165.2702 O.3     1  UNL1       -0.5058
     38 H         140.6925  144.0225  165.7722 H       1  UNL1        0.2922
@<TRIPOS>BOND
     1    16    17    1
     2    17    18    2
     3    17    19    2
     4    17    14    1
     5    14     8    1
     6     8     9   ar
     7     9    10   ar
     8    10    11   ar
     9    11     7    1
    10     7     6    1
    11     6     3    1
    12     3     4    1
    13     3     2    1
    14     2     1    1
    15     1    20    1
    16    20    21    1
    17    21    22    1
    18    22    23   ar
    19    23    24   ar
    20    24    25   ar
    21    25    26    1
    22    25    27   ar
    23    27    28    1
    24    27    29   ar
    25     1    30    1
    26    30    31    1
    27    31    32   ar
    28    32    33   ar
    29    33    34   ar
    30    34    35   ar
    31    35    36   ar
    32    36    37    1
    33    11    12   ar
    34    12    13   ar
    35    13     8   ar
    36    29    22   ar
    37    36    31   ar
    38    14    15    1
    39     4     5    1
    40    37    38    1
@<TRIPOS>MOLECULE
*****
 38 40 0 0 0
SMALL
GASTEIGER

@<TRIPOS>ATOM
      1 N         139.1633  141.0820  160.6020 N.3     1  UNL1       -0.2664
      2 C         138.5479  139.7690  160.2183 C.3     1  UNL1        0.1058
      3 C         138.8757  138.5305  160.9987 C.3     1  UNL1        0.1700
      4 O         139.9838  137.6282  160.5428 O.3     1  UNL1       -0.3793
      5 H         140.3820  137.9879  159.7347 H       1  UNL1        0.2106
      6 C         138.0954  138.1945  162.2349 C.3     1  UNL1        0.2358
      7 O         138.7382  137.4041  163.3358 O.3     1  UNL1       -0.4728
      8 C         141.8535  139.3199  165.9578 C.ar    1  UNL1        0.0646
      9 C         140.4317  139.7945  166.0131 C.ar    1  UNL1        0.0190
     10 C         139.3932  139.1559  165.1391 C.ar    1  UNL1        0.0382
     11 C         139.7766  138.0427  164.2098 C.ar    1  UNL1        0.1388
     12 C         141.1984  137.5680  164.1545 C.ar    1  UNL1        0.0382
     13 C         142.2369  138.2066  165.0285 C.ar    1  UNL1        0.0190
     14 N         142.8919  139.9584  166.8318 N.pl3   1  UNL1       -0.2187
     15 H         143.7597  140.2250  166.4508 H       1  UNL1        0.1734
     16 C         142.3245  140.4232  169.7408 C.3     1  UNL1        0.1996
     17 S         142.6082  140.1909  168.2863 S.O2    1  UNL1        0.0558
     18 O         142.9469  138.7597  168.5810 O.2     1  UNL1       -0.1544
     19 O         142.2695  141.6220  167.9915 O.2     1  UNL1       -0.1544
     20 C         140.6481  141.1892  160.7859 C.3     1  UNL1        0.0772
     21 C         141.3107  140.5117  161.9486 C.3     1  UNL1        0.0437
     22 C         142.1711  141.3043  162.8876 C.ar    1  UNL1       -0.0199
     23 C         141.5473  142.3132  163.8057 C.ar    1  UNL1       -0.0033
     24 C         142.4076  143.1057  164.7447 C.ar    1  UNL1        0.0119
     25 C         143.8918  142.8894  164.7655 C.ar    1  UNL1        0.0682
     26 CL        144.7521  143.6820  165.7045 Cl      1  UNL1       -0.0814
     27 C         144.5156  141.8805  163.8474 C.ar    1  UNL1        0.0679
     28 CL        145.9998  141.6642  163.8682 Cl      1  UNL1       -0.0814
     29 C         143.6552  141.0880  162.9085 C.ar    1  UNL1        0.0080
     30 C         138.2938  142.2879  160.8019 C.3     1  UNL1        0.1022
     31 C         138.3525  143.0491  162.0930 C.ar    1  UNL1        0.0276
     32 C         139.1856  144.2925  162.1934 C.ar    1  UNL1        0.0001
     33 C         139.2443  145.0537  163.4846 C.ar    1  UNL1       -0.0001
     34 C         138.4698  144.5716  164.6753 C.ar    1  UNL1        0.0031
     35 C         137.6367  143.3283  164.5749 C.ar    1  UNL1        0.0363
     36 C         137.5780  142.5671  163.2837 C.ar    1  UNL1        0.1309
     37 O         136.7449  141.3238  163.1833 O.3     1  UNL1       -0.5058
     38 H         136.2612  141.0226  163.9271 H       1  UNL1        0.2922
@<TRIPOS>BOND
     1    16    17    1
     2    17    18    2
     3    17    19    2
     4    17    14    1
     5    14     8    1
     6     8     9   ar
     7     9    10   ar
     8    10    11   ar
     9    11     7    1
    10     7     6    1
    11     6     3    1
    12     3     4    1
    13     3     2    1
    14     2     1    1
    15     1    20    1
    16    20    21    1
    17    21    22    1
    18    22    23   ar
    19    23    24   ar
    20    24    25   ar
    21    25    26    1
    22    25    27   ar
    23    27    28    1
    24    27    29   ar
    25     1    30    1
    26    30    31    1
    27    31    32   ar
    28    32    33   ar
    29    33    34   ar
    30    34    35   ar
    31    35    36   ar
    32    36    37    1
    33    11    12   ar
    34    12    13   ar
    35    13     8   ar
    36    29    22   ar
    37    36    31   ar
    38    14    15    1
    39     4     5    1
    40    37    38    1
@<TRIPOS>MOLECULE
*****
 38 40 0 0 0
SMALL
GASTEIGER

@<TRIPOS>ATOM
      1 N         142.2243  138.9278  162.7917 N.3     1  UNL1       -0.2664
      2 C         141.6533  137.8756  161.8879 C.3     1  UNL1        0.1058
      3 C         140.2225  137.9626  161.4458 C.3     1  UNL1        0.1700
      4 O         139.8973  138.2110  160.0027 O.3     1  UNL1       -0.3793
      5 H         140.7199  138.2907  159.4949 H       1  UNL1        0.2106
      6 C         139.1171  137.8014  162.4468 C.3     1  UNL1        0.2358
      7 O         137.8555  138.6004  162.3061 O.3     1  UNL1       -0.4728
      8 C         137.9986  143.0919  162.5422 C.ar    1  UNL1        0.0646
      9 C         137.7149  142.2848  163.7742 C.ar    1  UNL1        0.0190
     10 C         137.6672  140.7876  163.6956 C.ar    1  UNL1        0.0382
     11 C         137.9032  140.0975  162.3848 C.ar    1  UNL1        0.1388
     12 C         138.1868  140.9047  161.1527 C.ar    1  UNL1        0.0382
     13 C         138.2345  142.4019  161.2314 C.ar    1  UNL1        0.0190
     14 N         138.0463  144.5891  162.6209 N.pl3   1  UNL1       -0.2187
     15 H         137.2100  145.1064  162.6679 H       1  UNL1        0.1734
     16 C         140.6901  146.0070  162.6350 C.3     1  UNL1        0.1996
     17 S         139.3681  145.2980  162.6279 S.O2    1  UNL1        0.0558
     18 O         139.5174  145.0052  164.0915 O.2     1  UNL1       -0.1544
     19 O         139.2189  145.5908  161.1644 O.2     1  UNL1       -0.1544
     20 C         142.8959  138.5318  164.0731 C.3     1  UNL1        0.0772
     21 C         142.0824  138.3435  165.3192 C.3     1  UNL1        0.0437
     22 C         141.6766  139.5338  166.1370 C.ar    1  UNL1       -0.0199
     23 C         140.2453  139.9819  166.1503 C.ar    1  UNL1       -0.0033
     24 C         139.8396  141.1721  166.9681 C.ar    1  UNL1        0.0119
     25 C         140.8654  141.9141  167.7726 C.ar    1  UNL1        0.0682
     26 CL        140.4597  143.1044  168.5904 Cl      1  UNL1       -0.0814
     27 C         142.2968  141.4660  167.7593 C.ar    1  UNL1        0.0679
     28 CL        143.3225  142.2080  168.5638 Cl      1  UNL1       -0.0814
     29 C         142.7024  140.2758  166.9415 C.ar    1  UNL1        0.0080
     30 C         142.1238  140.3760  162.4139 C.3     1  UNL1        0.1022
     31 C         142.8385  141.4145  163.2268 C.ar    1  UNL1        0.0276
     32 C         142.0538  142.4339  163.9982 C.ar    1  UNL1        0.0001
     33 C         142.7684  143.4724  164.8111 C.ar    1  UNL1       -0.0001
     34 C         144.2678  143.4914  164.8526 C.ar    1  UNL1        0.0031
     35 C         145.0524  142.4720  164.0812 C.ar    1  UNL1        0.0363
     36 C         144.3377  141.4335  163.2683 C.ar    1  UNL1        0.1309
     37 O         145.1224  140.4141  162.4969 O.3     1  UNL1       -0.5058
     38 H         146.0589  140.4259  162.5228 H       1  UNL1        0.2922
@<TRIPOS>BOND
     1    16    17    1
     2    17    18    2
     3    17    19    2
     4    17    14    1
     5    14     8    1
     6     8     9   ar
     7     9    10   ar
     8    10    11   ar
     9    11     7    1
    10     7     6    1
    11     6     3    1
    12     3     4    1
    13     3     2    1
    14     2     1    1
    15     1    20    1
    16    20    21    1
    17    21    22    1
    18    22    23   ar
    19    23    24   ar
    20    24    25   ar
    21    25    26    1
    22    25    27   ar
    23    27    28    1
    24    27    29   ar
    25     1    30    1
    26    30    31    1
    27    31    32   ar
    28    32    33   ar
    29    33    34   ar
    30    34    35   ar
    31    35    36   ar
    32    36    37    1
    33    11    12   ar
    34    12    13   ar
    35    13     8   ar
    36    29    22   ar
    37    36    31   ar
    38    14    15    1
    39     4     5    1
    40    37    38    1
@<TRIPOS>MOLECULE
*****
 38 40 0 0 0
SMALL
GASTEIGER

@<TRIPOS>ATOM
      1 N         138.7902  143.5342  164.3101 N.3     1  UNL1       -0.2664
      2 C         137.9763  142.3400  164.7121 C.3     1  UNL1        0.1058
      3 C         137.7290  141.2352  163.7280 C.3     1  UNL1        0.1700
      4 O         136.5769  141.3264  162.7719 O.3     1  UNL1       -0.3793
      5 H         136.0971  142.1560  162.9219 H       1  UNL1        0.2106
      6 C         138.6339  140.0392  163.7003 C.3     1  UNL1        0.2358
      7 O         138.7533  139.1608  164.9103 O.3     1  UNL1       -0.4728
      8 C         141.8829  140.0332  168.0239 C.ar    1  UNL1        0.0646
      9 C         142.2921  139.5508  166.6638 C.ar    1  UNL1        0.0190
     10 C         141.2489  139.2600  165.6260 C.ar    1  UNL1        0.0382
     11 C         139.7965  139.4516  165.9482 C.ar    1  UNL1        0.1388
     12 C         139.3873  139.9341  167.3082 C.ar    1  UNL1        0.0382
     13 C         140.4306  140.2249  168.3461 C.ar    1  UNL1        0.0190
     14 N         142.9261  140.3240  169.0617 N.pl3   1  UNL1       -0.2187
     15 H         143.6099  139.6486  169.2751 H       1  UNL1        0.1734
     16 C         142.9288  142.9636  170.4875 C.3     1  UNL1        0.1996
     17 S         142.9275  141.6438  169.7746 S.O2    1  UNL1        0.0558
     18 O         142.4693  140.9654  171.0314 O.2     1  UNL1       -0.1544
     19 O         143.3857  142.3222  168.5177 O.2     1  UNL1       -0.1544
     20 C         139.9296  143.9900  165.1726 C.3     1  UNL1        0.0772
     21 C         141.1795  143.1653  165.2616 C.3     1  UNL1        0.0437
     22 C         142.0867  143.0478  164.0728 C.ar    1  UNL1       -0.0199
     23 C         143.0708  144.1384  163.7697 C.ar    1  UNL1       -0.0033
     24 C         143.9780  144.0208  162.5809 C.ar    1  UNL1        0.0119
     25 C         143.9011  142.8125  161.6954 C.ar    1  UNL1        0.0682
     26 CL        144.8083  142.6950  160.5066 Cl      1  UNL1       -0.0814
     27 C         142.9170  141.7219  161.9986 C.ar    1  UNL1        0.0679
     28 CL        142.8400  140.5136  161.1130 Cl      1  UNL1       -0.0814
     29 C         142.0098  141.8395  163.1873 C.ar    1  UNL1        0.0080
     30 C         138.4647  144.2725  163.0455 C.3     1  UNL1        0.1022
     31 C         139.3599  144.1416  161.8491 C.ar    1  UNL1        0.0276
     32 C         139.2960  142.9095  160.9958 C.ar    1  UNL1        0.0001
     33 C         140.1912  142.7786  159.7993 C.ar    1  UNL1       -0.0001
     34 C         141.1502  143.8798  159.4561 C.ar    1  UNL1        0.0031
     35 C         141.2140  145.1118  160.3093 C.ar    1  UNL1        0.0363
     36 C         140.3188  145.2427  161.5058 C.ar    1  UNL1        0.1309
     37 O         140.3827  146.4747  162.3590 O.3     1  UNL1       -0.5058
     38 H         140.9817  147.1625  162.1446 H       1  UNL1        0.2922
@<TRIPOS>BOND
     1    16    17    1
     2    17    18    2
     3    17    19    2
     4    17    14    1
     5    14     8    1
     6     8     9   ar
     7     9    10   ar
     8    10    11   ar
     9    11     7    1
    10     7     6    1
    11     6     3    1
    12     3     4    1
    13     3     2    1
    14     2     1    1
    15     1    20    1
    16    20    21    1
    17    21    22    1
    18    22    23   ar
    19    23    24   ar
    20    24    25   ar
    21    25    26    1
    22    25    27   ar
    23    27    28    1
    24    27    29   ar
    25     1    30    1
    26    30    31    1
    27    31    32   ar
    28    32    33   ar
    29    33    34   ar
    30    34    35   ar
    31    35    36   ar
    32    36    37    1
    33    11    12   ar
    34    12    13   ar
    35    13     8   ar
    36    29    22   ar
    37    36    31   ar
    38    14    15    1
    39     4     5    1
    40    37    38    1
@<TRIPOS>MOLECULE
*****
 38 40 0 0 0
SMALL
GASTEIGER

@<TRIPOS>ATOM
      1 N         143.3282  143.4176  161.6417 N.3     1  UNL1       -0.2664
      2 C         142.1382  144.2812  161.3450 C.3     1  UNL1        0.1058
      3 C         141.1576  144.6064  162.4327 C.3     1  UNL1        0.1700
      4 O         141.1865  145.9542  163.0901 O.3     1  UNL1       -0.3793
      5 H         141.8931  146.4904  162.6976 H       1  UNL1        0.2106
      6 C         140.1482  143.5835  162.8627 C.3     1  UNL1        0.2358
      7 O         139.3867  143.7727  164.1411 O.3     1  UNL1       -0.4728
      8 C         139.8221  140.7898  167.4821 C.ar    1  UNL1        0.0646
      9 C         139.1146  140.4017  166.2177 C.ar    1  UNL1        0.0190
     10 C         138.9695  141.3960  165.1040 C.ar    1  UNL1        0.0382
     11 C         139.5318  142.7784  165.2547 C.ar    1  UNL1        0.1388
     12 C         140.2393  143.1665  166.5191 C.ar    1  UNL1        0.0382
     13 C         140.3845  142.1721  167.6328 C.ar    1  UNL1        0.0190
     14 N         139.9673  139.7954  168.5957 N.pl3   1  UNL1       -0.2187
     15 H         139.6988  138.8584  168.4572 H       1  UNL1        0.1734
     16 C         141.0757  140.6620  171.2454 C.3     1  UNL1        0.1996
     17 S         140.5215  140.2287  169.9205 S.O2    1  UNL1        0.0558
     18 O         139.1428  140.6085  170.3731 O.2     1  UNL1       -0.1544
     19 O         141.9002  139.8490  169.4680 O.2     1  UNL1       -0.1544
     20 C         143.9862  142.6427  160.5388 C.3     1  UNL1        0.0772
     21 C         143.2567  141.5100  159.8795 C.3     1  UNL1        0.0437
     22 C         142.7213  140.3796  160.7076 C.ar    1  UNL1       -0.0199
     23 C         143.6236  139.2502  161.1078 C.ar    1  UNL1       -0.0033
     24 C         143.0882  138.1199  161.9358 C.ar    1  UNL1        0.0119
     25 C         141.6506  138.1190  162.3637 C.ar    1  UNL1        0.0682
     26 CL        141.1152  136.9886  163.1918 Cl      1  UNL1       -0.0814
     27 C         140.7483  139.2484  161.9635 C.ar    1  UNL1        0.0679
     28 CL        139.3106  139.2475  162.3913 Cl      1  UNL1       -0.0814
     29 C         141.2836  140.3787  161.1354 C.ar    1  UNL1        0.0080
     30 C         143.8603  143.3290  163.0415 C.3     1  UNL1        0.1022
     31 C         143.9143  142.0030  163.7407 C.ar    1  UNL1        0.0276
     32 C         142.6916  141.4642  164.4224 C.ar    1  UNL1        0.0001
     33 C         142.7456  140.1383  165.1216 C.ar    1  UNL1       -0.0001
     34 C         144.0224  139.3511  165.1391 C.ar    1  UNL1        0.0031
     35 C         145.2451  139.8899  164.4573 C.ar    1  UNL1        0.0363
     36 C         145.1910  141.2159  163.7581 C.ar    1  UNL1        0.1309
     37 O         146.4137  141.7547  163.0764 O.3     1  UNL1       -0.5058
     38 H         147.2112  141.2630  163.0873 H       1  UNL1        0.2922
@<TRIPOS>BOND
     1    16    17    1
     2    17    18    2
     3    17    19    2
     4    17    14    1
     5    14     8    1
     6     8     9   ar
     7     9    10   ar
     8    10    11   ar
     9    11     7    1
    10     7     6    1
    11     6     3    1
    12     3     4    1
    13     3     2    1
    14     2     1    1
    15     1    20    1
    16    20    21    1
    17    21    22    1
    18    22    23   ar
    19    23    24   ar
    20    24    25   ar
    21    25    26    1
    22    25    27   ar
    23    27    28    1
    24    27    29   ar
    25     1    30    1
    26    30    31    1
    27    31    32   ar
    28    32    33   ar
    29    33    34   ar
    30    34    35   ar
    31    35    36   ar
    32    36    37    1
    33    11    12   ar
    34    12    13   ar
    35    13     8   ar
    36    29    22   ar
    37    36    31   ar
    38    14    15    1
    39     4     5    1
    40    37    38    1
@<TRIPOS>MOLECULE
*****
 38 40 0 0 0
SMALL
GASTEIGER

@<TRIPOS>ATOM
      1 N         139.1453  141.1628  161.0564 N.3     1  UNL1       -0.2664
      2 C         138.8438  139.7267  160.7451 C.3     1  UNL1        0.1058
      3 C         139.1886  138.6559  161.7373 C.3     1  UNL1        0.1700
      4 O         140.3330  137.7243  161.4680 O.3     1  UNL1       -0.3793
      5 H         140.7397  137.9494  160.6167 H       1  UNL1        0.2106
      6 C         138.3891  138.5166  162.9988 C.3     1  UNL1        0.2358
      7 O         138.9443  137.7420  164.1570 O.3     1  UNL1       -0.4728
      8 C         140.5994  139.9168  167.7321 C.ar    1  UNL1        0.0646
      9 C         139.1274  139.6453  167.6346 C.ar    1  UNL1        0.0190
     10 C         138.5757  138.9203  166.4430 C.ar    1  UNL1        0.0382
     11 C         139.4960  138.4669  165.3487 C.ar    1  UNL1        0.1388
     12 C         140.9680  138.7384  165.4461 C.ar    1  UNL1        0.0382
     13 C         141.5197  139.4633  166.6378 C.ar    1  UNL1        0.0190
     14 N         141.1511  140.6417  168.9237 N.pl3   1  UNL1       -0.2187
     15 H         141.7523  140.1755  169.5486 H       1  UNL1        0.1734
     16 C         140.4226  143.5122  169.4029 C.3     1  UNL1        0.1996
     17 S         140.7869  142.0769  169.1634 S.O2    1  UNL1        0.0558
     18 O         141.8608  142.5087  168.2093 O.2     1  UNL1       -0.1544
     19 O         139.7130  141.6451  170.1174 O.2     1  UNL1       -0.1544
     20 C         140.4059  141.7928  160.5427 C.3     1  UNL1        0.0772
     21 C         141.7402  141.2584  160.9717 C.3     1  UNL1        0.0437
     22 C         142.4405  141.8535  162.1573 C.ar    1  UNL1       -0.0199
     23 C         143.2819  140.9852  163.0449 C.ar    1  UNL1       -0.0033
     24 C         143.9822  141.5802  164.2305 C.ar    1  UNL1        0.0119
     25 C         143.8410  143.0436  164.5283 C.ar    1  UNL1        0.0682
     26 CL        144.5413  143.6386  165.7139 Cl      1  UNL1       -0.0814
     27 C         142.9996  143.9119  163.6406 C.ar    1  UNL1        0.0679
     28 CL        142.8584  145.3752  163.9384 Cl      1  UNL1       -0.0814
     29 C         142.2993  143.3168  162.4551 C.ar    1  UNL1        0.0080
     30 C         138.1861  141.9688  161.8814 C.3     1  UNL1        0.1022
     31 C         138.6550  142.6314  163.1428 C.ar    1  UNL1        0.0276
     32 C         139.4824  141.8634  164.1305 C.ar    1  UNL1        0.0001
     33 C         139.9512  142.5260  165.3919 C.ar    1  UNL1       -0.0001
     34 C         139.5926  143.9566  165.6656 C.ar    1  UNL1        0.0031
     35 C         138.7652  144.7245  164.6778 C.ar    1  UNL1        0.0363
     36 C         138.2964  144.0619  163.4164 C.ar    1  UNL1        0.1309
     37 O         137.4690  144.8298  162.4287 O.3     1  UNL1       -0.5058
     38 H         137.2450  145.7235  162.5996 H       1  UNL1        0.2922
@<TRIPOS>BOND
     1    16    17    1
     2    17    18    2
     3    17    19    2
     4    17    14    1
     5    14     8    1
     6     8     9   ar
     7     9    10   ar
     8    10    11   ar
     9    11     7    1
    10     7     6    1
    11     6     3    1
    12     3     4    1
    13     3     2    1
    14     2     1    1
    15     1    20    1
    16    20    21    1
    17    21    22    1
    18    22    23   ar
    19    23    24   ar
    20    24    25   ar
    21    25    26    1
    22    25    27   ar
    23    27    28    1
    24    27    29   ar
    25     1    30    1
    26    30    31    1
    27    31    32   ar
    28    32    33   ar
    29    33    34   ar
    30    34    35   ar
    31    35    36   ar
    32    36    37    1
    33    11    12   ar
    34    12    13   ar
    35    13     8   ar
    36    29    22   ar
    37    36    31   ar
    38    14    15    1
    39     4     5    1
    40    37    38    1
@<TRIPOS>MOLECULE
*****
 38 40 0 0 0
SMALL
GASTEIGER

@<TRIPOS>ATOM
      1 N         139.9183  139.4181  164.6527 N.3     1  UNL1       -0.2664
      2 C         139.2936  138.2190  164.0031 C.3     1  UNL1        0.1058
      3 C         139.7958  137.7395  162.6735 C.3     1  UNL1        0.1700
      4 O         141.0570  136.9314  162.5952 O.3     1  UNL1       -0.3793
      5 H         141.4193  136.8103  163.4868 H       1  UNL1        0.2106
      6 C         139.0367  138.0682  161.4222 C.3     1  UNL1        0.2358
      7 O         139.7038  138.8370  160.3204 O.3     1  UNL1       -0.4728
      8 C         142.8825  141.8687  161.2972 C.ar    1  UNL1        0.0646
      9 C         141.4521  142.1389  161.6588 C.ar    1  UNL1        0.0190
     10 C         140.3925  141.1283  161.3332 C.ar    1  UNL1        0.0382
     11 C         140.7634  139.8476  160.6460 C.ar    1  UNL1        0.1388
     12 C         142.1938  139.5775  160.2845 C.ar    1  UNL1        0.0382
     13 C         143.2534  140.5880  160.6101 C.ar    1  UNL1        0.0190
     14 N         143.9421  142.8793  161.6228 N.pl3   1  UNL1       -0.2187
     15 H         144.6244  143.1107  160.9519 H       1  UNL1        0.1734
     16 C         143.9822  144.1953  164.3185 C.3     1  UNL1        0.1996
     17 S         143.9622  143.5372  162.9707 S.O2    1  UNL1        0.0558
     18 O         143.5408  144.8334  162.3442 O.2     1  UNL1       -0.1544
     19 O         144.3835  142.2411  163.5971 O.2     1  UNL1       -0.1544
     20 C         141.4020  139.6247  164.5764 C.3     1  UNL1        0.0772
     21 C         142.2818  139.1677  165.7020 C.3     1  UNL1        0.0437
     22 C         142.5641  140.0862  166.8538 C.ar    1  UNL1       -0.0199
     23 C         142.8231  141.5427  166.6055 C.ar    1  UNL1       -0.0033
     24 C         143.1054  142.4612  167.7573 C.ar    1  UNL1        0.0119
     25 C         143.1287  141.9232  169.1573 C.ar    1  UNL1        0.0682
     26 CL        143.4111  142.8418  170.3091 Cl      1  UNL1       -0.0814
     27 C         142.8698  140.4668  169.4056 C.ar    1  UNL1        0.0679
     28 CL        142.8932  139.9288  170.8056 Cl      1  UNL1       -0.0814
     29 C         142.5875  139.5483  168.2538 C.ar    1  UNL1        0.0080
     30 C         139.0592  140.4106  165.3787 C.3     1  UNL1        0.1022
     31 C         138.9114  141.8053  164.8468 C.ar    1  UNL1        0.0276
     32 C         139.8183  142.8950  165.3370 C.ar    1  UNL1        0.0001
     33 C         139.6705  144.2897  164.8051 C.ar    1  UNL1       -0.0001
     34 C         138.6158  144.5947  163.7829 C.ar    1  UNL1        0.0031
     35 C         137.7090  143.5051  163.2928 C.ar    1  UNL1        0.0363
     36 C         137.8568  142.1104  163.8247 C.ar    1  UNL1        0.1309
     37 O         136.9500  141.0207  163.3345 O.3     1  UNL1       -0.5058
     38 H         136.2912  141.2112  162.6961 H       1  UNL1        0.2922
@<TRIPOS>BOND
     1    16    17    1
     2    17    18    2
     3    17    19    2
     4    17    14    1
     5    14     8    1
     6     8     9   ar
     7     9    10   ar
     8    10    11   ar
     9    11     7    1
    10     7     6    1
    11     6     3    1
    12     3     4    1
    13     3     2    1
    14     2     1    1
    15     1    20    1
    16    20    21    1
    17    21    22    1
    18    22    23   ar
    19    23    24   ar
    20    24    25   ar
    21    25    26    1
    22    25    27   ar
    23    27    28    1
    24    27    29   ar
    25     1    30    1
    26    30    31    1
    27    31    32   ar
    28    32    33   ar
    29    33    34   ar
    30    34    35   ar
    31    35    36   ar
    32    36    37    1
    33    11    12   ar
    34    12    13   ar
    35    13     8   ar
    36    29    22   ar
    37    36    31   ar
    38    14    15    1
    39     4     5    1
    40    37    38    1
@<TRIPOS>MOLECULE
*****
 38 40 0 0 0
SMALL
GASTEIGER

@<TRIPOS>ATOM
      1 N         140.8232  139.4275  160.6786 N.3     1  UNL1       -0.2664
      2 C         142.0331  138.5749  160.4357 C.3     1  UNL1        0.1058
      3 C         143.4009  139.1905  160.4561 C.3     1  UNL1        0.1700
      4 O         144.1000  139.5074  159.1674 O.3     1  UNL1       -0.3793
      5 H         143.5339  139.2539  158.4216 H       1  UNL1        0.2106
      6 C         144.0694  139.4893  161.7652 C.3     1  UNL1        0.2358
      7 O         143.8097  138.6157  162.9566 O.3     1  UNL1       -0.4728
      8 C         141.9855  140.3695  166.6777 C.ar    1  UNL1        0.0646
      9 C         142.8288  139.1323  166.7672 C.ar    1  UNL1        0.0190
     10 C         143.4369  138.5477  165.5268 C.ar    1  UNL1        0.0382
     11 C         143.2016  139.2003  164.1969 C.ar    1  UNL1        0.1388
     12 C         142.3583  140.4376  164.1074 C.ar    1  UNL1        0.0382
     13 C         141.7503  141.0222  165.3478 C.ar    1  UNL1        0.0190
     14 N         141.3775  140.9541  167.9180 N.pl3   1  UNL1       -0.2187
     15 H         140.6070  141.5630  167.8486 H       1  UNL1        0.1734
     16 C         142.5094  140.2681  170.6103 C.3     1  UNL1        0.1996
     17 S         141.9434  140.6111  169.2641 S.O2    1  UNL1        0.0558
     18 O         143.0458  141.6064  169.0543 O.2     1  UNL1       -0.1544
     19 O         140.8410  139.6158  169.4740 O.2     1  UNL1       -0.1544
     20 C         140.8739  140.8996  160.3953 C.3     1  UNL1        0.0772
     21 C         139.6245  141.7246  160.4870 C.3     1  UNL1        0.0437
     22 C         139.3753  142.5765  161.6962 C.ar    1  UNL1       -0.0199
     23 C         137.9742  142.7904  162.1872 C.ar    1  UNL1       -0.0033
     24 C         137.7251  143.6423  163.3964 C.ar    1  UNL1        0.0119
     25 C         138.8771  144.2803  164.1146 C.ar    1  UNL1        0.0682
     26 CL        138.6279  145.1322  165.3238 Cl      1  UNL1       -0.0814
     27 C         140.2782  144.0664  163.6236 C.ar    1  UNL1        0.0679
     28 CL        141.4302  144.7045  164.3418 Cl      1  UNL1       -0.0814
     29 C         140.5273  143.2145  162.4144 C.ar    1  UNL1        0.0080
     30 C         139.5624  138.8080  161.2047 C.3     1  UNL1        0.1022
     31 C         139.3324  138.7166  162.6841 C.ar    1  UNL1        0.0276
     32 C         138.3334  139.6195  163.3450 C.ar    1  UNL1        0.0001
     33 C         138.1034  139.5281  164.8245 C.ar    1  UNL1       -0.0001
     34 C         138.8724  138.5337  165.6430 C.ar    1  UNL1        0.0031
     35 C         139.8714  137.6308  164.9821 C.ar    1  UNL1        0.0363
     36 C         140.1014  137.7223  163.5026 C.ar    1  UNL1        0.1309
     37 O         141.1003  136.8194  162.8417 O.3     1  UNL1       -0.5058
     38 H         141.5807  136.1982  163.3530 H       1  UNL1        0.2922
@<TRIPOS>BOND
     1    16    17    1
     2    17    18    2
     3    17    19    2
     4    17    14    1
     5    14     8    1
     6     8     9   ar
     7     9    10   ar
     8    10    11   ar
     9    11     7    1
    10     7     6    1
    11     6     3    1
    12     3     4    1
    13     3     2    1
    14     2     1    1
    15     1    20    1
    16    20    21    1
    17    21    22    1
    18    22    23   ar
    19    23    24   ar
    20    24    25   ar
    21    25    26    1
    22    25    27   ar
    23    27    28    1
    24    27    29   ar
    25     1    30    1
    26    30    31    1
    27    31    32   ar
    28    32    33   ar
    29    33    34   ar
    30    34    35   ar
    31    35    36   ar
    32    36    37    1
    33    11    12   ar
    34    12    13   ar
    35    13     8   ar
    36    29    22   ar
    37    36    31   ar
    38    14    15    1
    39     4     5    1
    40    37    38    1
