@<TRIPOS>MOLECULE
*****
 40 46 0 0 0
SMALL
GASTEIGER

@<TRIPOS>ATOM
      1 N         142.3408  143.0723  160.9209 N.ar    1  UNL1       -0.3132
      2 C         142.2773  142.2383  162.1660 C.ar    1  UNL1        0.0771
      3 C         141.2157  142.8138  163.0557 C.ar    1  UNL1        0.0229
      4 C         140.6230  144.0035  162.3605 C.ar    1  UNL1        0.0668
      5 C         139.5400  144.9619  162.7584 C.ar    1  UNL1        0.1300
      6 N         138.8446  144.8022  164.0779 N.pl3   1  UNL1       -0.3425
      7 N         139.1523  146.0802  161.8369 N.ar    1  UNL1       -0.2094
      8 C         139.8477  146.2399  160.5175 C.ar    1  UNL1        0.2014
      9 N         140.9307  145.2815  160.1195 N.ar    1  UNL1       -0.2065
     10 C         141.3184  144.1633  161.0411 C.ar    1  UNL1        0.1482
     11 H         139.0990  144.0682  164.6827 H       1  UNL1        0.1437
     12 H         138.1337  145.4312  164.3390 H       1  UNL1        0.1437
     13 C         140.8167  142.2913  164.4040 C.ar    1  UNL1        0.0046
     14 C         141.4811  142.8209  165.6403 C.ar    1  UNL1        0.0003
     15 C         141.0821  142.2985  166.9886 C.ar    1  UNL1        0.0031
     16 C         140.0188  141.2465  167.1007 C.ar    1  UNL1        0.0369
     17 C         139.3544  140.7169  165.8645 C.ar    1  UNL1        0.1387
     18 C         139.7534  141.2394  164.5162 C.ar    1  UNL1        0.0369
     19 O         138.2911  139.6649  165.9766 O.3     1  UNL1       -0.4729
     20 C         138.5937  138.2482  165.5876 C.3     1  UNL1        0.2321
     21 C         139.6191  137.9634  164.5306 C.3     1  UNL1        0.1329
     22 C         141.0727  137.6781  164.7664 C.3     1  UNL1        0.0334
     23 C         141.7230  137.4522  163.4336 C.3     1  UNL1        0.0321
     24 C         140.6713  137.5979  162.3741 C.3     1  UNL1        0.1153
     25 C         139.2176  137.8831  162.1383 C.3     1  UNL1        0.0321
     26 C         138.5674  138.1090  163.4710 C.3     1  UNL1        0.0334
     27 O         139.3709  137.9138  163.0520 O.3     1  UNL1       -0.3574
     28 C         144.5709  142.5446  158.1169 C.3     1  UNL1        0.0613
     29 C         144.4722  141.9994  159.5108 C.3     1  UNL1        0.0387
     30 C         143.2645  142.8538  159.7594 C.3     1  UNL1        0.0896
     31 C         143.3633  143.3989  158.3656 C.3     1  UNL1        0.0387
     32 C         147.7273  141.1476  152.1725 C.3     1  UNL1        0.0948
     33 C         148.2659  141.6705  153.4712 C.2     1  UNL1        0.2262
     34 O         149.7283  141.9748  153.6084 O.2     1  UNL1       -0.2749
     35 N         147.3421  141.8890  154.6325 N.am    1  UNL1       -0.2767
     36 C         145.8798  141.5847  154.4954 C.3     1  UNL1        0.1107
     37 C         144.9560  141.8032  155.6568 C.3     1  UNL1        0.0939
     38 N         145.4947  142.3261  156.9555 N.3     1  UNL1       -0.2710
     39 C         146.9570  142.6304  157.0926 C.3     1  UNL1        0.0939
     40 C         147.8807  142.4119  155.9313 C.3     1  UNL1        0.1107
@<TRIPOS>BOND
     1    32    33    1
     2    33    34    2
     3    33    35   am
     4    35    36    1
     5    36    37    1
     6    37    38    1
     7    28    38    1
     8    28    29    1
     9    29    30    1
    10    30     1    1
    11     1     2   ar
    12     2     3   ar
    13     3    13    1
    14    13    14   ar
    15    14    15   ar
    16    15    16   ar
    17    16    17   ar
    18    17    19    1
    19    19    20    1
    20    20    21    1
    21    21    22    1
    22    22    23    1
    23    23    24    1
    24    24    25    1
    25    25    26    1
    26    24    27    1
    27    17    18   ar
    28     3     4   ar
    29     4     5   ar
    30     5     6    1
    31     5     7   ar
    32     7     8   ar
    33     8     9   ar
    34     9    10   ar
    35    30    31    1
    36    38    39    1
    37    39    40    1
    38    40    35    1
    39    31    28    1
    40    10     1   ar
    41    18    13   ar
    42    10     4   ar
    43    26    21    1
    44    27    21    1
    45     6    11    1
    46     6    12    1
@<TRIPOS>MOLECULE
*****
 40 46 0 0 0
SMALL
GASTEIGER

@<TRIPOS>ATOM
      1 N         141.1395  140.8057  159.3338 N.ar    1  UNL1       -0.3132
      2 C         140.3706  140.9071  160.6177 C.ar    1  UNL1        0.0771
      3 C         140.3439  142.3492  161.0294 C.ar    1  UNL1        0.0229
      4 C         141.0964  143.1392  159.9999 C.ar    1  UNL1        0.0668
      5 C         141.3973  144.6039  159.8813 C.ar    1  UNL1        0.1300
      6 N         140.9055  145.5578  160.9293 N.pl3   1  UNL1       -0.3425
      7 N         142.1900  145.1146  158.7149 N.ar    1  UNL1       -0.2094
      8 C         142.6817  144.1606  157.6669 C.ar    1  UNL1        0.2014
      9 N         142.3808  142.6960  157.7855 N.ar    1  UNL1       -0.2065
     10 C         141.5881  142.1852  158.9520 C.ar    1  UNL1        0.1482
     11 H         140.3852  145.2226  161.6949 H       1  UNL1        0.1437
     12 H         141.1031  146.5192  160.8514 H       1  UNL1        0.1437
     13 C         139.6811  142.9041  162.2553 C.ar    1  UNL1        0.0046
     14 C         138.3189  143.5244  162.1557 C.ar    1  UNL1        0.0003
     15 C         137.6561  144.0792  163.3817 C.ar    1  UNL1        0.0031
     16 C         138.3554  144.0138  164.7070 C.ar    1  UNL1        0.0369
     17 C         139.7175  143.3936  164.8065 C.ar    1  UNL1        0.1387
     18 C         140.3803  142.8387  163.5806 C.ar    1  UNL1        0.0369
     19 O         140.4168  143.3281  166.1319 O.3     1  UNL1       -0.4729
     20 C         140.7557  141.9978  166.7362 C.3     1  UNL1        0.2321
     21 C         140.2286  141.6339  168.0926 C.3     1  UNL1        0.1329
     22 C         139.6259  140.3160  168.4799 C.3     1  UNL1        0.0334
     23 C         139.2364  140.3917  169.9265 C.3     1  UNL1        0.0321
     24 C         139.5982  141.7564  170.4332 C.3     1  UNL1        0.1153
     25 C         140.2009  143.0742  170.0458 C.3     1  UNL1        0.0321
     26 C         140.5904  142.9986  168.5993 C.3     1  UNL1        0.0334
     27 O         140.2114  142.5242  169.2998 O.3     1  UNL1       -0.3574
     28 C         141.7975  137.7645  157.4812 C.3     1  UNL1        0.0613
     29 C         140.6316  138.3032  158.2560 C.3     1  UNL1        0.0387
     30 C         141.4121  139.5461  158.5664 C.3     1  UNL1        0.0896
     31 C         142.5780  139.0073  157.7916 C.3     1  UNL1        0.0387
     32 C         142.1553  132.4540  153.1313 C.3     1  UNL1        0.0948
     33 C         142.8879  132.7258  154.4118 C.2     1  UNL1        0.2262
     34 O         143.8932  131.7377  154.9247 O.2     1  UNL1       -0.2749
     35 N         142.6153  133.9854  155.1790 N.am    1  UNL1       -0.2767
     36 C         141.6100  134.9735  154.6660 C.3     1  UNL1        0.1107
     37 C         141.3374  136.2332  155.4334 C.3     1  UNL1        0.0939
     38 N         142.0701  136.5048  156.7138 N.3     1  UNL1       -0.2710
     39 C         143.0754  135.5168  157.2268 C.3     1  UNL1        0.0939
     40 C         143.3480  134.2571  156.4595 C.3     1  UNL1        0.1107
@<TRIPOS>BOND
     1    32    33    1
     2    33    34    2
     3    33    35   am
     4    35    36    1
     5    36    37    1
     6    37    38    1
     7    28    38    1
     8    28    29    1
     9    29    30    1
    10    30     1    1
    11     1     2   ar
    12     2     3   ar
    13     3    13    1
    14    13    14   ar
    15    14    15   ar
    16    15    16   ar
    17    16    17   ar
    18    17    19    1
    19    19    20    1
    20    20    21    1
    21    21    22    1
    22    22    23    1
    23    23    24    1
    24    24    25    1
    25    25    26    1
    26    24    27    1
    27    17    18   ar
    28     3     4   ar
    29     4     5   ar
    30     5     6    1
    31     5     7   ar
    32     7     8   ar
    33     8     9   ar
    34     9    10   ar
    35    30    31    1
    36    38    39    1
    37    39    40    1
    38    40    35    1
    39    31    28    1
    40    10     1   ar
    41    18    13   ar
    42    10     4   ar
    43    26    21    1
    44    27    21    1
    45     6    11    1
    46     6    12    1
@<TRIPOS>MOLECULE
*****
 40 46 0 0 0
SMALL
GASTEIGER

@<TRIPOS>ATOM
      1 N         142.7712  140.1189  159.6395 N.ar    1  UNL1       -0.3132
      2 C         143.0360  140.1028  161.1159 C.ar    1  UNL1        0.0771
      3 C         142.9904  141.5183  161.6103 C.ar    1  UNL1        0.0229
      4 C         142.6974  142.4091  160.4396 C.ar    1  UNL1        0.0668
      5 C         142.5365  143.8960  160.3253 C.ar    1  UNL1        0.1300
      6 N         142.6719  144.7609  161.5433 N.pl3   1  UNL1       -0.3425
      7 N         142.2401  144.5180  158.9929 N.ar    1  UNL1       -0.2094
      8 C         142.1046  143.6532  157.7749 C.ar    1  UNL1        0.2014
      9 N         142.2655  142.1662  157.8892 N.ar    1  UNL1       -0.2065
     10 C         142.5620  141.5442  159.2215 C.ar    1  UNL1        0.1482
     11 H         142.8665  144.3526  162.4178 H       1  UNL1        0.1437
     12 H         142.5663  145.7368  161.4683 H       1  UNL1        0.1437
     13 C         143.2009  141.9646  163.0268 C.ar    1  UNL1        0.0046
     14 C         144.5687  142.3706  163.4899 C.ar    1  UNL1        0.0003
     15 C         144.7791  142.8169  164.9065 C.ar    1  UNL1        0.0031
     16 C         143.6218  142.8572  165.8599 C.ar    1  UNL1        0.0369
     17 C         142.2541  142.4512  165.3968 C.ar    1  UNL1        0.1387
     18 C         142.0437  142.0049  163.9803 C.ar    1  UNL1        0.0369
     19 O         141.0968  142.4915  166.3502 O.3     1  UNL1       -0.4729
     20 C         139.9565  143.4349  166.1062 C.3     1  UNL1        0.2321
     21 C         139.0342  143.2121  164.9444 C.3     1  UNL1        0.1329
     22 C         138.2279  141.9744  164.6834 C.3     1  UNL1        0.0334
     23 C         137.4517  142.1853  163.4172 C.3     1  UNL1        0.0321
     24 C         137.7783  143.5532  162.8956 C.3     1  UNL1        0.1153
     25 C         138.5847  144.7908  163.1566 C.3     1  UNL1        0.0321
     26 C         139.3609  144.5800  164.4228 C.3     1  UNL1        0.0334
     27 O         138.7564  144.1879  163.8394 O.3     1  UNL1       -0.3574
     28 C         142.6572  137.2246  157.4660 C.3     1  UNL1        0.0613
     29 C         142.6008  137.4399  158.9494 C.3     1  UNL1        0.0387
     30 C         142.7240  138.9201  158.7392 C.3     1  UNL1        0.0896
     31 C         142.7803  138.7047  157.2558 C.3     1  UNL1        0.0387
     32 C         141.2956  132.2220  152.9525 C.3     1  UNL1        0.0948
     33 C         142.4683  132.4294  153.8646 C.2     1  UNL1        0.2262
     34 O         143.5938  131.4378  153.8763 O.2     1  UNL1       -0.2749
     35 N         142.5154  133.6282  154.7649 N.am    1  UNL1       -0.2767
     36 C         141.3900  134.6197  154.7532 C.3     1  UNL1        0.1107
     37 C         141.4372  135.8185  155.6536 C.3     1  UNL1        0.0939
     38 N         142.6099  136.0258  156.5656 N.3     1  UNL1       -0.2710
     39 C         143.7354  135.0342  156.5773 C.3     1  UNL1        0.0939
     40 C         143.6882  133.8355  155.6770 C.3     1  UNL1        0.1107
@<TRIPOS>BOND
     1    32    33    1
     2    33    34    2
     3    33    35   am
     4    35    36    1
     5    36    37    1
     6    37    38    1
     7    28    38    1
     8    28    29    1
     9    29    30    1
    10    30     1    1
    11     1     2   ar
    12     2     3   ar
    13     3    13    1
    14    13    14   ar
    15    14    15   ar
    16    15    16   ar
    17    16    17   ar
    18    17    19    1
    19    19    20    1
    20    20    21    1
    21    21    22    1
    22    22    23    1
    23    23    24    1
    24    24    25    1
    25    25    26    1
    26    24    27    1
    27    17    18   ar
    28     3     4   ar
    29     4     5   ar
    30     5     6    1
    31     5     7   ar
    32     7     8   ar
    33     8     9   ar
    34     9    10   ar
    35    30    31    1
    36    38    39    1
    37    39    40    1
    38    40    35    1
    39    31    28    1
    40    10     1   ar
    41    18    13   ar
    42    10     4   ar
    43    26    21    1
    44    27    21    1
    45     6    11    1
    46     6    12    1
@<TRIPOS>MOLECULE
*****
 40 46 0 0 0
SMALL
GASTEIGER

@<TRIPOS>ATOM
      1 N         141.0734  140.8054  159.4443 N.ar    1  UNL1       -0.3132
      2 C         140.3403  140.8701  160.7513 C.ar    1  UNL1        0.0771
      3 C         140.3373  142.2979  161.2110 C.ar    1  UNL1        0.0229
      4 C         141.0687  143.1157  160.1881 C.ar    1  UNL1        0.0668
      5 C         141.3791  144.5811  160.1099 C.ar    1  UNL1        0.1300
      6 N         140.9242  145.5035  161.2018 N.pl3   1  UNL1       -0.3425
      7 N         142.1445  145.1241  158.9397 N.ar    1  UNL1       -0.2094
      8 C         142.5995  144.2017  157.8479 C.ar    1  UNL1        0.2014
      9 N         142.2890  142.7363  157.9261 N.ar    1  UNL1       -0.2065
     10 C         141.5236  142.1933  159.0962 C.ar    1  UNL1        0.1482
     11 H         140.4218  145.1471  161.9698 H       1  UNL1        0.1437
     12 H         141.1280  146.4653  161.1504 H       1  UNL1        0.1437
     13 C         139.7127  142.8168  162.4722 C.ar    1  UNL1        0.0046
     14 C         138.4438  143.6142  162.4077 C.ar    1  UNL1        0.0003
     15 C         137.8191  144.1332  163.6689 C.ar    1  UNL1        0.0031
     16 C         138.4634  143.8548  164.9945 C.ar    1  UNL1        0.0369
     17 C         139.7323  143.0574  165.0590 C.ar    1  UNL1        0.1387
     18 C         140.3569  142.5385  163.7978 C.ar    1  UNL1        0.0369
     19 O         140.3765  142.7790  166.3847 O.3     1  UNL1       -0.4729
     20 C         140.0890  141.4940  167.1032 C.3     1  UNL1        0.2321
     21 C         139.8273  140.2404  166.3222 C.3     1  UNL1        0.1329
     22 C         138.4803  139.7177  165.9192 C.3     1  UNL1        0.0334
     23 C         138.6872  138.4435  165.1551 C.3     1  UNL1        0.0321
     24 C         140.1620  138.1788  165.0858 C.3     1  UNL1        0.1153
     25 C         141.5090  138.7016  165.4888 C.3     1  UNL1        0.0321
     26 C         141.3021  139.9757  166.2530 C.3     1  UNL1        0.0334
     27 O         140.8667  139.2893  165.8071 O.3     1  UNL1       -0.3574
     28 C         141.6547  137.8225  157.4749 C.3     1  UNL1        0.0613
     29 C         142.4818  139.0092  157.8720 C.3     1  UNL1        0.0387
     30 C         141.3142  139.5699  158.6286 C.3     1  UNL1        0.0896
     31 C         140.4871  138.3832  158.2315 C.3     1  UNL1        0.0387
     32 C         141.7938  132.6184  152.9862 C.3     1  UNL1        0.0948
     33 C         142.6178  132.8803  154.2121 C.2     1  UNL1        0.2262
     34 O         143.6824  131.9065  154.6221 O.2     1  UNL1       -0.2749
     35 N         142.3769  134.1158  155.0277 N.am    1  UNL1       -0.2767
     36 C         141.3123  135.0896  154.6177 C.3     1  UNL1        0.1107
     37 C         141.0715  136.3252  155.4334 C.3     1  UNL1        0.0939
     38 N         141.8955  136.5870  156.6592 N.3     1  UNL1       -0.2710
     39 C         142.9601  135.6132  157.0693 C.3     1  UNL1        0.0939
     40 C         143.2009  134.3777  156.2536 C.3     1  UNL1        0.1107
@<TRIPOS>BOND
     1    32    33    1
     2    33    34    2
     3    33    35   am
     4    35    36    1
     5    36    37    1
     6    37    38    1
     7    28    38    1
     8    28    29    1
     9    29    30    1
    10    30     1    1
    11     1     2   ar
    12     2     3   ar
    13     3    13    1
    14    13    14   ar
    15    14    15   ar
    16    15    16   ar
    17    16    17   ar
    18    17    19    1
    19    19    20    1
    20    20    21    1
    21    21    22    1
    22    22    23    1
    23    23    24    1
    24    24    25    1
    25    25    26    1
    26    24    27    1
    27    17    18   ar
    28     3     4   ar
    29     4     5   ar
    30     5     6    1
    31     5     7   ar
    32     7     8   ar
    33     8     9   ar
    34     9    10   ar
    35    30    31    1
    36    38    39    1
    37    39    40    1
    38    40    35    1
    39    31    28    1
    40    10     1   ar
    41    18    13   ar
    42    10     4   ar
    43    26    21    1
    44    27    21    1
    45     6    11    1
    46     6    12    1
@<TRIPOS>MOLECULE
*****
 40 46 0 0 0
SMALL
GASTEIGER

@<TRIPOS>ATOM
      1 N         142.7174  140.1594  159.7111 N.ar    1  UNL1       -0.3132
      2 C         143.0125  140.1203  161.1813 C.ar    1  UNL1        0.0771
      3 C         142.9759  141.5277  161.6989 C.ar    1  UNL1        0.0229
      4 C         142.6582  142.4366  160.5487 C.ar    1  UNL1        0.0668
      5 C         142.4938  143.9249  160.4613 C.ar    1  UNL1        0.1300
      6 N         142.6536  144.7706  161.6899 N.pl3   1  UNL1       -0.3425
      7 N         142.1696  144.5677  159.1453 N.ar    1  UNL1       -0.2094
      8 C         142.0099  143.7220  157.9168 C.ar    1  UNL1        0.2014
      9 N         142.1743  142.2336  158.0042 N.ar    1  UNL1       -0.2065
     10 C         142.4985  141.5909  159.3202 C.ar    1  UNL1        0.1482
     11 H         142.8663  144.3488  162.5536 H       1  UNL1        0.1437
     12 H         142.5456  145.7475  161.6325 H       1  UNL1        0.1437
     13 C         143.2150  141.9518  163.1177 C.ar    1  UNL1        0.0046
     14 C         144.5149  142.5959  163.4991 C.ar    1  UNL1        0.0003
     15 C         144.7540  143.0200  164.9179 C.ar    1  UNL1        0.0031
     16 C         143.6933  142.8000  165.9554 C.ar    1  UNL1        0.0369
     17 C         142.3934  142.1559  165.5740 C.ar    1  UNL1        0.1387
     18 C         142.1543  141.7318  164.1552 C.ar    1  UNL1        0.0369
     19 O         141.3326  141.9359  166.6115 O.3     1  UNL1       -0.4729
     20 C         141.1254  140.5693  167.1942 C.3     1  UNL1        0.2321
     21 C         140.4560  139.5010  166.3814 C.3     1  UNL1        0.1329
     22 C         141.1332  138.5713  165.4185 C.3     1  UNL1        0.0334
     23 C         140.0876  137.6705  164.8308 C.3     1  UNL1        0.0321
     24 C         138.7642  138.0435  165.4304 C.3     1  UNL1        0.1153
     25 C         138.0871  138.9732  166.3933 C.3     1  UNL1        0.0321
     26 C         139.1326  139.8740  166.9810 C.3     1  UNL1        0.0334
     27 O         138.9918  139.1748  166.3887 O.3     1  UNL1       -0.3574
     28 C         142.5610  137.2998  157.4948 C.3     1  UNL1        0.0613
     29 C         142.4877  137.4957  158.9801 C.3     1  UNL1        0.0387
     30 C         142.6526  138.9749  158.7931 C.3     1  UNL1        0.0896
     31 C         142.7260  138.7789  157.3078 C.3     1  UNL1        0.0387
     32 C         143.3780  131.5179  153.8680 C.3     1  UNL1        0.0948
     33 C         142.3019  132.5620  153.8225 C.2     1  UNL1        0.2262
     34 O         141.1610  132.4215  152.8589 O.2     1  UNL1       -0.2749
     35 N         142.3668  133.7463  154.7406 N.am    1  UNL1       -0.2767
     36 C         143.5076  133.8869  155.7042 C.3     1  UNL1        0.1107
     37 C         143.5724  135.0713  156.6223 C.3     1  UNL1        0.0939
     38 N         142.4963  136.1153  156.5767 N.3     1  UNL1       -0.2710
     39 C         141.3554  135.9748  155.6131 C.3     1  UNL1        0.0939
     40 C         141.2906  134.7904  154.6951 C.3     1  UNL1        0.1107
@<TRIPOS>BOND
     1    32    33    1
     2    33    34    2
     3    33    35   am
     4    35    36    1
     5    36    37    1
     6    37    38    1
     7    28    38    1
     8    28    29    1
     9    29    30    1
    10    30     1    1
    11     1     2   ar
    12     2     3   ar
    13     3    13    1
    14    13    14   ar
    15    14    15   ar
    16    15    16   ar
    17    16    17   ar
    18    17    19    1
    19    19    20    1
    20    20    21    1
    21    21    22    1
    22    22    23    1
    23    23    24    1
    24    24    25    1
    25    25    26    1
    26    24    27    1
    27    17    18   ar
    28     3     4   ar
    29     4     5   ar
    30     5     6    1
    31     5     7   ar
    32     7     8   ar
    33     8     9   ar
    34     9    10   ar
    35    30    31    1
    36    38    39    1
    37    39    40    1
    38    40    35    1
    39    31    28    1
    40    10     1   ar
    41    18    13   ar
    42    10     4   ar
    43    26    21    1
    44    27    21    1
    45     6    11    1
    46     6    12    1
@<TRIPOS>MOLECULE
*****
 40 46 0 0 0
SMALL
GASTEIGER

@<TRIPOS>ATOM
      1 N         142.3656  140.5980  158.3286 N.ar    1  UNL1       -0.3132
      2 C         142.3112  141.0432  159.7600 C.ar    1  UNL1        0.0771
      3 C         142.2596  142.5422  159.7775 C.ar    1  UNL1        0.0229
      4 C         142.2822  143.0234  158.3569 C.ar    1  UNL1        0.0668
      5 C         142.2515  144.4005  157.7631 C.ar    1  UNL1        0.1300
      6 N         142.1860  145.6021  158.6585 N.pl3   1  UNL1       -0.3425
      7 N         142.2864  144.5760  156.2738 N.ar    1  UNL1       -0.2094
      8 C         142.3520  143.3743  155.3784 C.ar    1  UNL1        0.2014
      9 N         142.3826  141.9973  155.9722 N.ar    1  UNL1       -0.2065
     10 C         142.3477  141.8218  157.4615 C.ar    1  UNL1        0.1482
     11 H         142.1631  145.4870  159.6360 H       1  UNL1        0.1437
     12 H         142.1659  146.5060  158.2687 H       1  UNL1        0.1437
     13 C         142.1965  143.4081  161.0007 C.ar    1  UNL1        0.0046
     14 C         143.4519  143.7340  161.7544 C.ar    1  UNL1        0.0003
     15 C         143.3888  144.5999  162.9777 C.ar    1  UNL1        0.0031
     16 C         142.0704  145.1398  163.4473 C.ar    1  UNL1        0.0369
     17 C         140.8152  144.8138  162.6936 C.ar    1  UNL1        0.1387
     18 C         140.8783  143.9480  161.4703 C.ar    1  UNL1        0.0369
     19 O         139.4969  145.3537  163.1631 O.3     1  UNL1       -0.4729
     20 C         138.8049  144.7268  164.3371 C.3     1  UNL1        0.2321
     21 C         138.7522  143.2333  164.4668 C.3     1  UNL1        0.1329
     22 C         139.5845  142.3990  165.3949 C.3     1  UNL1        0.0334
     23 C         139.2046  140.9620  165.1928 C.3     1  UNL1        0.0321
     24 C         138.1376  140.9082  164.1400 C.3     1  UNL1        0.1153
     25 C         137.3054  141.7425  163.2120 C.3     1  UNL1        0.0321
     26 C         137.6852  143.1795  163.4140 C.3     1  UNL1        0.0334
     27 O         137.8579  142.3119  163.6912 O.3     1  UNL1       -0.3574
     28 C         142.5143  137.1703  157.1697 C.3     1  UNL1        0.0613
     29 C         142.6225  138.5163  156.5167 C.3     1  UNL1        0.0387
     30 C         142.4272  139.1782  157.8487 C.3     1  UNL1        0.0896
     31 C         142.3189  137.8322  158.5016 C.3     1  UNL1        0.0387
     32 C         143.8454  130.5795  155.7416 C.3     1  UNL1        0.0948
     33 C         142.7604  131.4912  155.2498 C.2     1  UNL1        0.2262
     34 O         141.7370  130.9830  154.2779 O.2     1  UNL1       -0.2749
     35 N         142.6989  132.9109  155.7298 N.am    1  UNL1       -0.2767
     36 C         143.7223  133.4191  156.7016 C.3     1  UNL1        0.1107
     37 C         143.6607  134.8389  157.1816 C.3     1  UNL1        0.0939
     38 N         142.5758  135.7505  156.6898 N.3     1  UNL1       -0.2710
     39 C         141.5525  135.2423  155.7179 C.3     1  UNL1        0.0939
     40 C         141.6140  133.8226  155.2380 C.3     1  UNL1        0.1107
@<TRIPOS>BOND
     1    32    33    1
     2    33    34    2
     3    33    35   am
     4    35    36    1
     5    36    37    1
     6    37    38    1
     7    28    38    1
     8    28    29    1
     9    29    30    1
    10    30     1    1
    11     1     2   ar
    12     2     3   ar
    13     3    13    1
    14    13    14   ar
    15    14    15   ar
    16    15    16   ar
    17    16    17   ar
    18    17    19    1
    19    19    20    1
    20    20    21    1
    21    21    22    1
    22    22    23    1
    23    23    24    1
    24    24    25    1
    25    25    26    1
    26    24    27    1
    27    17    18   ar
    28     3     4   ar
    29     4     5   ar
    30     5     6    1
    31     5     7   ar
    32     7     8   ar
    33     8     9   ar
    34     9    10   ar
    35    30    31    1
    36    38    39    1
    37    39    40    1
    38    40    35    1
    39    31    28    1
    40    10     1   ar
    41    18    13   ar
    42    10     4   ar
    43    26    21    1
    44    27    21    1
    45     6    11    1
    46     6    12    1
@<TRIPOS>MOLECULE
*****
 40 46 0 0 0
SMALL
GASTEIGER

@<TRIPOS>ATOM
      1 N         140.2200  138.9434  160.1976 N.ar    1  UNL1       -0.3132
      2 C         141.2976  138.1551  159.5141 C.ar    1  UNL1        0.0771
      3 C         141.0572  138.2267  158.0353 C.ar    1  UNL1        0.0229
      4 C         139.8309  139.0592  157.8047 C.ar    1  UNL1        0.0668
      5 C         139.1186  139.4712  156.5506 C.ar    1  UNL1        0.1300
      6 N         139.6360  139.0282  155.2142 N.pl3   1  UNL1       -0.3425
      7 N         137.8889  140.3261  156.6329 N.ar    1  UNL1       -0.2094
      8 C         137.3715  140.7691  157.9693 C.ar    1  UNL1        0.2014
      9 N         138.0838  140.3572  159.2235 N.ar    1  UNL1       -0.2065
     10 C         139.3135  139.5022  159.1412 C.ar    1  UNL1        0.1482
     11 H         140.4432  138.4670  155.1602 H       1  UNL1        0.1437
     12 H         139.1685  139.2985  154.3910 H       1  UNL1        0.1437
     13 C         141.8957  137.5793  156.9733 C.ar    1  UNL1        0.0046
     14 C         143.1849  138.2151  156.5444 C.ar    1  UNL1        0.0003
     15 C         144.0235  137.5677  155.4824 C.ar    1  UNL1        0.0031
     16 C         143.5730  136.2847  154.8494 C.ar    1  UNL1        0.0369
     17 C         142.2838  135.6490  155.2783 C.ar    1  UNL1        0.1387
     18 C         141.4453  136.2963  156.3403 C.ar    1  UNL1        0.0369
     19 O         141.8333  134.3659  154.6453 O.3     1  UNL1       -0.4729
     20 C         141.8976  133.0837  155.4211 C.3     1  UNL1        0.2321
     21 C         143.1280  132.7448  156.2092 C.3     1  UNL1        0.1329
     22 C         143.5723  133.4083  157.4790 C.3     1  UNL1        0.0334
     23 C         144.8492  132.7564  157.9204 C.3     1  UNL1        0.0321
     24 C         145.1941  131.6901  156.9234 C.3     1  UNL1        0.1153
     25 C         144.7497  131.0268  155.6535 C.3     1  UNL1        0.0321
     26 C         143.4729  131.6786  155.2121 C.3     1  UNL1        0.0334
     27 O         144.1304  131.6829  155.8657 O.3     1  UNL1       -0.3574
     28 C         139.8684  139.4150  163.7709 C.3     1  UNL1        0.0613
     29 C         140.3800  140.2517  162.6359 C.3     1  UNL1        0.0387
     30 C         140.0743  139.1387  161.6777 C.3     1  UNL1        0.0896
     31 C         139.5627  138.3022  162.8127 C.3     1  UNL1        0.0387
     32 C         140.3920  140.8374  170.4756 C.3     1  UNL1        0.0948
     33 C         139.2857  140.1962  169.6911 C.2     1  UNL1        0.2262
     34 O         138.0339  139.7503  170.3869 O.2     1  UNL1       -0.2749
     35 N         139.4315  140.0010  168.2111 N.am    1  UNL1       -0.2767
     36 C         140.6833  140.4468  167.5154 C.3     1  UNL1        0.1107
     37 C         140.8290  140.2515  166.0353 C.3     1  UNL1        0.0939
     38 N         139.7228  139.6103  165.2509 N.3     1  UNL1       -0.2710
     39 C         138.4709  139.1645  165.9467 C.3     1  UNL1        0.0939
     40 C         138.3253  139.3598  167.4267 C.3     1  UNL1        0.1107
@<TRIPOS>BOND
     1    32    33    1
     2    33    34    2
     3    33    35   am
     4    35    36    1
     5    36    37    1
     6    37    38    1
     7    28    38    1
     8    28    29    1
     9    29    30    1
    10    30     1    1
    11     1     2   ar
    12     2     3   ar
    13     3    13    1
    14    13    14   ar
    15    14    15   ar
    16    15    16   ar
    17    16    17   ar
    18    17    19    1
    19    19    20    1
    20    20    21    1
    21    21    22    1
    22    22    23    1
    23    23    24    1
    24    24    25    1
    25    25    26    1
    26    24    27    1
    27    17    18   ar
    28     3     4   ar
    29     4     5   ar
    30     5     6    1
    31     5     7   ar
    32     7     8   ar
    33     8     9   ar
    34     9    10   ar
    35    30    31    1
    36    38    39    1
    37    39    40    1
    38    40    35    1
    39    31    28    1
    40    10     1   ar
    41    18    13   ar
    42    10     4   ar
    43    26    21    1
    44    27    21    1
    45     6    11    1
    46     6    12    1
@<TRIPOS>MOLECULE
*****
 40 46 0 0 0
SMALL
GASTEIGER

@<TRIPOS>ATOM
      1 N         140.9817  140.9790  159.4110 N.ar    1  UNL1       -0.3132
      2 C         140.3107  141.0386  160.7512 C.ar    1  UNL1        0.0771
      3 C         140.2709  142.4736  161.1862 C.ar    1  UNL1        0.0229
      4 C         140.9172  143.3009  160.1148 C.ar    1  UNL1        0.0668
      5 C         141.1625  144.7759  159.9964 C.ar    1  UNL1        0.1300
      6 N         140.7233  145.6996  161.0936 N.pl3   1  UNL1       -0.3425
      7 N         141.8471  145.3272  158.7810 N.ar    1  UNL1       -0.2094
      8 C         142.2864  144.4034  157.6838 C.ar    1  UNL1        0.2014
      9 N         142.0411  142.9284  157.8022 N.ar    1  UNL1       -0.2065
     10 C         141.3565  142.3771  159.0176 C.ar    1  UNL1        0.1482
     11 H         140.2739  145.3378  161.8913 H       1  UNL1        0.1437
     12 H         140.8843  146.6678  161.0159 H       1  UNL1        0.1437
     13 C         139.6872  142.9907  162.4676 C.ar    1  UNL1        0.0046
     14 C         138.3328  143.6354  162.4685 C.ar    1  UNL1        0.0003
     15 C         137.7491  144.1524  163.7499 C.ar    1  UNL1        0.0031
     16 C         138.5198  144.0248  165.0304 C.ar    1  UNL1        0.0369
     17 C         139.8742  143.3801  165.0295 C.ar    1  UNL1        0.1387
     18 C         140.4578  142.8631  163.7481 C.ar    1  UNL1        0.0369
     19 O         140.6449  143.2525  166.3100 O.3     1  UNL1       -0.4729
     20 C         141.5974  142.1096  166.5014 C.3     1  UNL1        0.2321
     21 C         142.8468  142.0281  165.6753 C.3     1  UNL1        0.1329
     22 C         143.7278  143.1805  165.2933 C.3     1  UNL1        0.0334
     23 C         144.8601  142.6445  164.4681 C.3     1  UNL1        0.0321
     24 C         144.6789  141.1610  164.3402 C.3     1  UNL1        0.1153
     25 C         143.7978  140.0088  164.7223 C.3     1  UNL1        0.0321
     26 C         142.6655  140.5447  165.5474 C.3     1  UNL1        0.0334
     27 O         143.4345  140.7800  165.0863 O.3     1  UNL1       -0.3574
     28 C         141.5897  137.9851  157.4664 C.3     1  UNL1        0.0613
     29 C         140.7768  138.3122  158.6839 C.3     1  UNL1        0.0387
     30 C         141.2335  139.7389  158.6055 C.3     1  UNL1        0.0896
     31 C         142.0464  139.4118  157.3881 C.3     1  UNL1        0.0387
     32 C         141.7250  132.7055  153.0667 C.3     1  UNL1        0.0948
     33 C         142.5973  133.0249  154.2446 C.2     1  UNL1        0.2262
     34 O         143.7215  132.1043  154.6168 O.2     1  UNL1       -0.2749
     35 N         142.3454  134.2650  155.0499 N.am    1  UNL1       -0.2767
     36 C         141.2212  135.1856  154.6777 C.3     1  UNL1        0.1107
     37 C         140.9693  136.4257  155.4832 C.3     1  UNL1        0.0939
     38 N         141.8416  136.7451  156.6609 N.3     1  UNL1       -0.2710
     39 C         142.9658  135.8244  157.0332 C.3     1  UNL1        0.0939
     40 C         143.2176  134.5844  156.2278 C.3     1  UNL1        0.1107
@<TRIPOS>BOND
     1    32    33    1
     2    33    34    2
     3    33    35   am
     4    35    36    1
     5    36    37    1
     6    37    38    1
     7    28    38    1
     8    28    29    1
     9    29    30    1
    10    30     1    1
    11     1     2   ar
    12     2     3   ar
    13     3    13    1
    14    13    14   ar
    15    14    15   ar
    16    15    16   ar
    17    16    17   ar
    18    17    19    1
    19    19    20    1
    20    20    21    1
    21    21    22    1
    22    22    23    1
    23    23    24    1
    24    24    25    1
    25    25    26    1
    26    24    27    1
    27    17    18   ar
    28     3     4   ar
    29     4     5   ar
    30     5     6    1
    31     5     7   ar
    32     7     8   ar
    33     8     9   ar
    34     9    10   ar
    35    30    31    1
    36    38    39    1
    37    39    40    1
    38    40    35    1
    39    31    28    1
    40    10     1   ar
    41    18    13   ar
    42    10     4   ar
    43    26    21    1
    44    27    21    1
    45     6    11    1
    46     6    12    1
@<TRIPOS>MOLECULE
*****
 40 46 0 0 0
SMALL
GASTEIGER

@<TRIPOS>ATOM
      1 N         138.7221  141.9562  159.9620 N.ar    1  UNL1       -0.3132
      2 C         137.9965  140.9807  159.0835 C.ar    1  UNL1        0.0771
      3 C         137.9930  141.5282  157.6870 C.ar    1  UNL1        0.0229
      4 C         138.7165  142.8421  157.7024 C.ar    1  UNL1        0.0668
      5 C         139.0232  143.8318  156.6178 C.ar    1  UNL1        0.1300
      6 N         138.5726  143.5672  155.2117 N.pl3   1  UNL1       -0.3425
      7 N         139.7805  145.0860  156.9392 N.ar    1  UNL1       -0.2094
      8 C         140.2311  145.3505  158.3453 C.ar    1  UNL1        0.2014
      9 N         139.9244  144.3608  159.4299 N.ar    1  UNL1       -0.2065
     10 C         139.1671  143.1066  159.1084 C.ar    1  UNL1        0.1482
     11 H         138.0755  142.7440  155.0008 H       1  UNL1        0.1437
     12 H         138.7739  144.2168  154.4999 H       1  UNL1        0.1437
     13 C         137.3746  140.8763  156.4859 C.ar    1  UNL1        0.0046
     14 C         138.1590  139.8775  155.6875 C.ar    1  UNL1        0.0003
     15 C         137.5406  139.2256  154.4864 C.ar    1  UNL1        0.0031
     16 C         136.1379  139.5723  154.0837 C.ar    1  UNL1        0.0369
     17 C         135.3536  140.5711  154.8821 C.ar    1  UNL1        0.1387
     18 C         135.9720  141.2230  156.0832 C.ar    1  UNL1        0.0369
     19 O         133.9509  140.9179  154.4794 O.3     1  UNL1       -0.4729
     20 C         132.9464  141.3099  155.5221 C.3     1  UNL1        0.2321
     21 C         132.4084  140.2795  156.4702 C.3     1  UNL1        0.1329
     22 C         133.2246  139.3751  157.3454 C.3     1  UNL1        0.0334
     23 C         132.2804  138.5092  158.1257 C.3     1  UNL1        0.0321
     24 C         130.8806  138.8784  157.7326 C.3     1  UNL1        0.1153
     25 C         130.0645  139.7828  156.8573 C.3     1  UNL1        0.0321
     26 C         131.0087  140.6486  156.0772 C.3     1  UNL1        0.0334
     27 O         130.9597  139.9725  156.7095 O.3     1  UNL1       -0.3574
     28 C         139.2986  141.5971  163.5191 C.3     1  UNL1        0.0613
     29 C         140.1654  141.5629  162.2953 C.3     1  UNL1        0.0387
     30 C         138.9609  141.8075  161.4354 C.3     1  UNL1        0.0896
     31 C         138.0942  141.8417  162.6591 C.3     1  UNL1        0.0387
     32 C         140.8260  142.1442  170.1988 C.3     1  UNL1        0.0948
     33 C         140.2536  141.0021  169.4126 C.2     1  UNL1        0.2262
     34 O         139.9200  139.7113  170.0999 O.2     1  UNL1       -0.2749
     35 N         140.0149  141.1510  167.9393 N.am    1  UNL1       -0.2767
     36 C         140.3485  142.4418  167.2520 C.3     1  UNL1        0.1107
     37 C         140.1097  142.5905  165.7786 C.3     1  UNL1        0.0939
     38 N         139.5374  141.4484  164.9925 N.3     1  UNL1       -0.2710
     39 C         139.2038  140.1576  165.6798 C.3     1  UNL1        0.0939
     40 C         139.4425  140.0088  167.1531 C.3     1  UNL1        0.1107
@<TRIPOS>BOND
     1    32    33    1
     2    33    34    2
     3    33    35   am
     4    35    36    1
     5    36    37    1
     6    37    38    1
     7    28    38    1
     8    28    29    1
     9    29    30    1
    10    30     1    1
    11     1     2   ar
    12     2     3   ar
    13     3    13    1
    14    13    14   ar
    15    14    15   ar
    16    15    16   ar
    17    16    17   ar
    18    17    19    1
    19    19    20    1
    20    20    21    1
    21    21    22    1
    22    22    23    1
    23    23    24    1
    24    24    25    1
    25    25    26    1
    26    24    27    1
    27    17    18   ar
    28     3     4   ar
    29     4     5   ar
    30     5     6    1
    31     5     7   ar
    32     7     8   ar
    33     8     9   ar
    34     9    10   ar
    35    30    31    1
    36    38    39    1
    37    39    40    1
    38    40    35    1
    39    31    28    1
    40    10     1   ar
    41    18    13   ar
    42    10     4   ar
    43    26    21    1
    44    27    21    1
    45     6    11    1
    46     6    12    1
