@<TRIPOS>MOLECULE
*****
 33 35 0 0 0
SMALL
GASTEIGER

@<TRIPOS>ATOM
      1 C         138.7432  138.7018  163.1483 C.ar    1  UNL1        0.2218
      2 N         139.0641  138.0013  161.8612 N.ar    1  UNL1       -0.2120
      3 C         139.0077  138.7526  160.5642 C.ar    1  UNL1        0.1085
      4 C         138.6303  140.2044  160.5541 C.ar    1  UNL1        0.1219
      5 C         138.3094  140.9048  161.8411 C.ar    1  UNL1        0.1368
      6 N         138.3658  140.1535  163.1382 N.ar    1  UNL1       -0.1989
      7 C         138.5739  140.9557  159.2570 C.3     1  UNL1        0.4226
      8 F         138.5175  141.7069  157.9600 F       1  UNL1       -0.1657
      9 F         139.9072  141.5740  159.5571 F       1  UNL1       -0.1657
     10 F         137.2407  140.3373  158.9569 F       1  UNL1       -0.1657
     11 N         138.7996  137.9505  164.4453 N.pl3   1  UNL1       -0.2825
     12 H         138.6087  136.9848  164.4635 H       1  UNL1        0.1551
     13 C         139.8411  140.1103  168.2532 C.ar    1  UNL1        0.1563
     14 C         138.4736  139.5203  168.0756 C.ar    1  UNL1        0.0506
     15 C         138.1264  138.8003  166.8063 C.ar    1  UNL1        0.0191
     16 C         139.1468  138.6704  165.7146 C.ar    1  UNL1        0.0507
     17 C         140.5143  139.2604  165.8922 C.ar    1  UNL1        0.0191
     18 C         140.8615  139.9804  167.1615 C.ar    1  UNL1        0.0506
     19 C         140.6073  143.3941  169.4888 C.3     1  UNL1        0.2067
     20 N         140.2672  142.1238  168.7672 N.2     1  UNL1       -0.1212
     21 S         140.1883  140.8303  169.5225 S.3     1  UNL1       -0.0180
     22 C         140.5355  141.5502  170.7918 C.3     1  UNL1        0.2959
     23 O         140.1094  139.5367  170.2778 O.co2   1  UNL1       -0.6273
     24 N         137.9321  142.3565  161.8311 N.pl3   1  UNL1       -0.3183
     25 H         137.3488  142.7086  161.1204 H       1  UNL1        0.1482
     26 C         138.4435  143.2718  162.9039 C.3     1  UNL1        0.0849
     27 C         137.6582  143.7825  164.0753 C.3     1  UNL1        0.0209
     28 C         138.5593  144.6634  164.8890 C.3     1  UNL1        0.0032
     29 C         139.9017  144.6971  164.2203 C.3     1  UNL1        0.0177
     30 C         139.8301  143.8370  162.9934 C.3     1  UNL1        0.0755
     31 N         140.9486  143.5862  162.0259 N.3     1  UNL1       -0.2700
     32 C         141.8426  142.3952  162.2056 C.3     1  UNL1        0.0897
     33 C         141.1732  144.5263  160.8790 C.3     1  UNL1        0.0897
@<TRIPOS>UNITY_ATOM_ATTR
21 1
charge 1
23 1
charge -1
@<TRIPOS>BOND
     1    19    20    1
     2    20    21    2
     3    21    22    1
     4    21    23    1
     5    21    13    1
     6    13    14   ar
     7    14    15   ar
     8    15    16   ar
     9    16    11    1
    10    11     1    1
    11     1     2   ar
    12     2     3   ar
    13     3     4   ar
    14     4     7    1
    15     7     8    1
    16     7     9    1
    17     7    10    1
    18     4     5   ar
    19     5    24    1
    20    26    24    1
    21    26    27    1
    22    27    28    1
    23    28    29    1
    24    29    30    1
    25    30    31    1
    26    31    32    1
    27    31    33    1
    28     5     6   ar
    29    16    17   ar
    30    17    18   ar
    31    18    13   ar
    32     6     1   ar
    33    30    26    1
    34    11    12    1
    35    24    25    1
@<TRIPOS>MOLECULE
*****
 33 35 0 0 0
SMALL
GASTEIGER

@<TRIPOS>ATOM
      1 C         142.6367  139.6387  167.5446 C.ar    1  UNL1        0.2218
      2 N         142.6675  139.5952  169.0437 N.ar    1  UNL1       -0.2120
      3 C         141.9251  140.6275  169.8393 C.ar    1  UNL1        0.1085
      4 C         141.1518  141.7033  169.1360 C.ar    1  UNL1        0.1219
      5 C         141.1210  141.7468  167.6369 C.ar    1  UNL1        0.1368
      6 N         141.8635  140.7145  166.8412 N.ar    1  UNL1       -0.1989
      7 C         140.4093  142.7356  169.9317 C.3     1  UNL1        0.4226
      8 F         139.6668  143.7678  170.7274 F       1  UNL1       -0.1657
      9 F         141.5769  143.6693  169.8100 F       1  UNL1       -0.1657
     10 F         139.2417  141.8019  170.0534 F       1  UNL1       -0.1657
     11 N         143.3792  138.6064  166.7489 N.pl3   1  UNL1       -0.2825
     12 H         143.9509  137.9490  167.2073 H       1  UNL1        0.1551
     13 C         142.9937  138.5147  162.2664 C.ar    1  UNL1        0.1563
     14 C         141.9482  137.8637  163.1225 C.ar    1  UNL1        0.0506
     15 C         142.0767  137.8943  164.6167 C.ar    1  UNL1        0.0191
     16 C         143.2507  138.5759  165.2547 C.ar    1  UNL1        0.0507
     17 C         144.2962  139.2268  164.3986 C.ar    1  UNL1        0.0191
     18 C         144.1677  139.1963  162.9044 C.ar    1  UNL1        0.0506
     19 C         140.5136  138.5420  159.6692 C.3     1  UNL1        0.2067
     20 N         141.3716  138.5404  160.8995 N.2     1  UNL1       -0.1212
     21 S         142.8652  138.4841  160.7722 S.3     1  UNL1       -0.0180
     22 C         142.7367  138.4536  159.2780 C.3     1  UNL1        0.2959
     23 O         144.3587  138.4279  160.6449 O.co2   1  UNL1       -0.6273
     24 N         140.3477  142.8226  166.9336 N.pl3   1  UNL1       -0.3183
     25 H         140.1327  143.6610  167.4026 H       1  UNL1        0.1482
     26 C         139.9020  142.6209  165.5155 C.3     1  UNL1        0.0849
     27 C         138.6762  141.8778  165.0738 C.3     1  UNL1        0.0209
     28 C         138.6205  141.9245  163.5756 C.3     1  UNL1        0.0032
     29 C         139.8121  142.6964  163.0913 C.3     1  UNL1        0.0177
     30 C         140.6041  143.1268  164.2903 C.3     1  UNL1        0.0755
     31 N         141.8750  143.9232  164.2680 N.3     1  UNL1       -0.2700
     32 C         143.1558  143.3052  164.7451 C.3     1  UNL1        0.0897
     33 C         141.8652  145.3375  163.7686 C.3     1  UNL1        0.0897
@<TRIPOS>UNITY_ATOM_ATTR
21 1
charge 1
23 1
charge -1
@<TRIPOS>BOND
     1    19    20    1
     2    20    21    2
     3    21    22    1
     4    21    23    1
     5    21    13    1
     6    13    14   ar
     7    14    15   ar
     8    15    16   ar
     9    16    11    1
    10    11     1    1
    11     1     2   ar
    12     2     3   ar
    13     3     4   ar
    14     4     7    1
    15     7     8    1
    16     7     9    1
    17     7    10    1
    18     4     5   ar
    19     5    24    1
    20    26    24    1
    21    26    27    1
    22    27    28    1
    23    28    29    1
    24    29    30    1
    25    30    31    1
    26    31    32    1
    27    31    33    1
    28     5     6   ar
    29    16    17   ar
    30    17    18   ar
    31    18    13   ar
    32     6     1   ar
    33    30    26    1
    34    11    12    1
    35    24    25    1
@<TRIPOS>MOLECULE
*****
 33 35 0 0 0
SMALL
GASTEIGER

@<TRIPOS>ATOM
      1 C         139.7511  139.9846  167.6789 C.ar    1  UNL1        0.2218
      2 N         139.6683  140.0776  169.1737 N.ar    1  UNL1       -0.2120
      3 C         140.6634  140.9069  169.9299 C.ar    1  UNL1        0.1085
      4 C         141.7415  141.6433  169.1913 C.ar    1  UNL1        0.1219
      5 C         141.8244  141.5503  167.6965 C.ar    1  UNL1        0.1368
      6 N         140.8292  140.7210  166.9402 N.ar    1  UNL1       -0.1989
      7 C         142.7367  142.4726  169.9475 C.3     1  UNL1        0.4226
      8 F         143.7318  143.3020  170.7037 F       1  UNL1       -0.1657
      9 F         143.6874  141.3126  169.9687 F       1  UNL1       -0.1657
     10 F         141.7860  143.6327  169.9263 F       1  UNL1       -0.1657
     11 N         138.7559  139.1553  166.9227 N.pl3   1  UNL1       -0.2825
     12 H         138.1967  138.5008  167.4002 H       1  UNL1        0.1551
     13 C         138.3268  139.6591  162.4716 C.ar    1  UNL1        0.1563
     14 C         137.9753  140.7903  163.3918 C.ar    1  UNL1        0.0506
     15 C         138.1184  140.6224  164.8755 C.ar    1  UNL1        0.0191
     16 C         138.6129  139.3233  165.4390 C.ar    1  UNL1        0.0507
     17 C         138.9644  138.1920  164.5189 C.ar    1  UNL1        0.0191
     18 C         138.8213  138.3600  163.0352 C.ar    1  UNL1        0.0506
     19 C         139.6548  138.4201  159.3736 C.3     1  UNL1        0.2067
     20 N         139.2471  138.7921  160.7683 N.2     1  UNL1       -0.1212
     21 S         138.1837  139.8270  160.9879 S.3     1  UNL1       -0.0180
     22 C         138.0407  139.9950  159.5043 C.3     1  UNL1        0.2959
     23 O         137.1204  140.8620  161.2076 O.co2   1  UNL1       -0.6273
     24 N         142.9024  142.2867  166.9578 N.pl3   1  UNL1       -0.3183
     25 H         143.4292  142.9796  167.4178 H       1  UNL1        0.1482
     26 C         143.1778  141.9673  165.5183 C.3     1  UNL1        0.0849
     27 C         144.0504  140.8568  165.0129 C.3     1  UNL1        0.0209
     28 C         144.0408  140.9055  163.5137 C.3     1  UNL1        0.0032
     29 C         143.1624  142.0462  163.0926 C.3     1  UNL1        0.0177
     30 C         142.6290  142.7023  164.3315 C.3     1  UNL1        0.0755
     31 N         141.7084  143.8859  164.3759 N.3     1  UNL1       -0.2700
     32 C         142.1724  145.2165  163.8621 C.3     1  UNL1        0.0897
     33 C         140.3240  143.7387  164.9340 C.3     1  UNL1        0.0897
@<TRIPOS>UNITY_ATOM_ATTR
21 1
charge 1
23 1
charge -1
@<TRIPOS>BOND
     1    19    20    1
     2    20    21    2
     3    21    22    1
     4    21    23    1
     5    21    13    1
     6    13    14   ar
     7    14    15   ar
     8    15    16   ar
     9    16    11    1
    10    11     1    1
    11     1     2   ar
    12     2     3   ar
    13     3     4   ar
    14     4     7    1
    15     7     8    1
    16     7     9    1
    17     7    10    1
    18     4     5   ar
    19     5    24    1
    20    26    24    1
    21    26    27    1
    22    27    28    1
    23    28    29    1
    24    29    30    1
    25    30    31    1
    26    31    32    1
    27    31    33    1
    28     5     6   ar
    29    16    17   ar
    30    17    18   ar
    31    18    13   ar
    32     6     1   ar
    33    30    26    1
    34    11    12    1
    35    24    25    1
@<TRIPOS>MOLECULE
*****
 33 35 0 0 0
SMALL
GASTEIGER

@<TRIPOS>ATOM
      1 C         142.8550  139.3249  166.5118 C.ar    1  UNL1        0.2218
      2 N         142.9930  139.0829  167.9858 N.ar    1  UNL1       -0.2120
      3 C         142.0279  139.7165  168.9434 C.ar    1  UNL1        0.1085
      4 C         140.9248  140.5921  168.4272 C.ar    1  UNL1        0.1219
      5 C         140.7868  140.8341  166.9533 C.ar    1  UNL1        0.1368
      6 N         141.7519  140.2005  165.9956 N.ar    1  UNL1       -0.1989
      7 C         139.9596  141.2257  169.3849 C.3     1  UNL1        0.4226
      8 F         138.9945  141.8592  170.3426 F       1  UNL1       -0.1657
      9 F         140.7601  142.4938  169.3527 F       1  UNL1       -0.1657
     10 F         139.1591  139.9576  169.4171 F       1  UNL1       -0.1657
     11 N         143.8201  138.6913  165.5542 N.pl3   1  UNL1       -0.2825
     12 H         144.4640  138.0198  165.8764 H       1  UNL1        0.1551
     13 C         143.7725  139.8598  161.2088 C.ar    1  UNL1        0.1563
     14 C         144.6479  140.6011  162.1753 C.ar    1  UNL1        0.0506
     15 C         144.6637  140.2116  163.6237 C.ar    1  UNL1        0.0191
     16 C         143.8042  139.0808  164.1057 C.ar    1  UNL1        0.0507
     17 C         142.9289  138.3394  163.1393 C.ar    1  UNL1        0.0191
     18 C         142.9130  138.7289  161.6908 C.ar    1  UNL1        0.0506
     19 C         143.8408  142.7576  159.0887 C.3     1  UNL1        0.2067
     20 N         143.8219  141.6966  160.1488 N.2     1  UNL1       -0.1212
     21 S         143.7566  140.2492  159.7604 S.3     1  UNL1       -0.0180
     22 C         143.7408  140.6387  158.3119 C.3     1  UNL1        0.2959
     23 O         143.6914  138.8019  159.3719 O.co2   1  UNL1       -0.6273
     24 N         139.6836  141.7096  166.4371 N.pl3   1  UNL1       -0.3183
     25 H         139.3918  142.4924  166.9579 H       1  UNL1        0.1482
     26 C         139.0251  141.3925  165.1271 C.3     1  UNL1        0.0849
     27 C         138.7726  142.3610  164.0099 C.3     1  UNL1        0.0209
     28 C         138.0949  141.6182  162.8968 C.3     1  UNL1        0.0032
     29 C         137.9286  140.1906  163.3261 C.3     1  UNL1        0.0177
     30 C         138.5035  140.0511  164.7045 C.3     1  UNL1        0.0755
     31 N         138.5488  138.7913  165.5176 N.3     1  UNL1       -0.2700
     32 C         137.7540  138.6882  166.7856 C.3     1  UNL1        0.0897
     33 C         139.3888  137.6349  165.0628 C.3     1  UNL1        0.0897
@<TRIPOS>UNITY_ATOM_ATTR
21 1
charge 1
23 1
charge -1
@<TRIPOS>BOND
     1    19    20    1
     2    20    21    2
     3    21    22    1
     4    21    23    1
     5    21    13    1
     6    13    14   ar
     7    14    15   ar
     8    15    16   ar
     9    16    11    1
    10    11     1    1
    11     1     2   ar
    12     2     3   ar
    13     3     4   ar
    14     4     7    1
    15     7     8    1
    16     7     9    1
    17     7    10    1
    18     4     5   ar
    19     5    24    1
    20    26    24    1
    21    26    27    1
    22    27    28    1
    23    28    29    1
    24    29    30    1
    25    30    31    1
    26    31    32    1
    27    31    33    1
    28     5     6   ar
    29    16    17   ar
    30    17    18   ar
    31    18    13   ar
    32     6     1   ar
    33    30    26    1
    34    11    12    1
    35    24    25    1
@<TRIPOS>MOLECULE
*****
 33 35 0 0 0
SMALL
GASTEIGER

@<TRIPOS>ATOM
      1 C         139.6446  142.0534  165.2395 C.ar    1  UNL1        0.2218
      2 N         138.9532  141.2179  164.2031 N.ar    1  UNL1       -0.2120
      3 C         138.4264  139.8605  164.5632 C.ar    1  UNL1        0.1085
      4 C         138.5908  139.3384  165.9598 C.ar    1  UNL1        0.1219
      5 C         139.2820  140.1738  166.9962 C.ar    1  UNL1        0.1368
      6 N         139.8090  141.5313  166.6361 N.ar    1  UNL1       -0.1989
      7 C         138.0639  137.9809  166.3199 C.3     1  UNL1        0.4226
      8 F         137.5370  136.6235  166.6800 F       1  UNL1       -0.1657
      9 F         139.0869  137.3464  165.4250 F       1  UNL1       -0.1657
     10 F         137.0409  138.6154  167.2147 F       1  UNL1       -0.1657
     11 N         140.1714  143.4108  164.8794 N.pl3   1  UNL1       -0.2825
     12 H         140.2624  144.1035  165.5731 H       1  UNL1        0.1551
     13 C         141.3361  144.3173  160.6283 C.ar    1  UNL1        0.1563
     14 C         140.0717  144.8890  161.1977 C.ar    1  UNL1        0.0506
     15 C         139.6835  144.5869  162.6147 C.ar    1  UNL1        0.0191
     16 C         140.5597  143.7130  163.4624 C.ar    1  UNL1        0.0507
     17 C         141.8241  143.1412  162.8930 C.ar    1  UNL1        0.0191
     18 C         142.2123  143.4434  161.4760 C.ar    1  UNL1        0.0506
     19 C         140.1568  146.0489  157.7115 C.3     1  UNL1        0.2067
     20 N         140.4552  145.3979  159.0296 N.2     1  UNL1       -0.1212
     21 S         141.7244  144.6194  159.2113 S.3     1  UNL1       -0.0180
     22 C         142.1126  144.9215  157.7943 C.3     1  UNL1        0.2959
     23 O         142.9936  143.8409  159.3930 O.co2   1  UNL1       -0.6273
     24 N         139.4465  139.6517  168.3928 N.pl3   1  UNL1       -0.3183
     25 H         139.0486  138.7873  168.6452 H       1  UNL1        0.1482
     26 C         140.2170  140.4468  169.4048 C.3     1  UNL1        0.0849
     27 C         139.6967  141.6130  170.1917 C.3     1  UNL1        0.0209
     28 C         140.8013  142.1021  171.0808 C.3     1  UNL1        0.0032
     29 C         142.0044  141.2382  170.8434 C.3     1  UNL1        0.0177
     30 C         141.6433  140.2152  169.8076 C.3     1  UNL1        0.0755
     31 N         142.5493  139.1478  169.2691 N.3     1  UNL1       -0.2700
     32 C         143.0758  138.0803  170.1818 C.3     1  UNL1        0.0897
     33 C         142.9288  139.1481  167.8179 C.3     1  UNL1        0.0897
@<TRIPOS>UNITY_ATOM_ATTR
21 1
charge 1
23 1
charge -1
@<TRIPOS>BOND
     1    19    20    1
     2    20    21    2
     3    21    22    1
     4    21    23    1
     5    21    13    1
     6    13    14   ar
     7    14    15   ar
     8    15    16   ar
     9    16    11    1
    10    11     1    1
    11     1     2   ar
    12     2     3   ar
    13     3     4   ar
    14     4     7    1
    15     7     8    1
    16     7     9    1
    17     7    10    1
    18     4     5   ar
    19     5    24    1
    20    26    24    1
    21    26    27    1
    22    27    28    1
    23    28    29    1
    24    29    30    1
    25    30    31    1
    26    31    32    1
    27    31    33    1
    28     5     6   ar
    29    16    17   ar
    30    17    18   ar
    31    18    13   ar
    32     6     1   ar
    33    30    26    1
    34    11    12    1
    35    24    25    1
@<TRIPOS>MOLECULE
*****
 33 35 0 0 0
SMALL
GASTEIGER

@<TRIPOS>ATOM
      1 C         143.2321  142.5578  166.6169 C.ar    1  UNL1        0.2218
      2 N         143.4887  142.4454  168.0906 N.ar    1  UNL1       -0.2120
      3 C         142.4099  141.9431  169.0036 C.ar    1  UNL1        0.1085
      4 C         141.0743  141.5531  168.4431 C.ar    1  UNL1        0.1219
      5 C         140.8176  141.6654  166.9695 C.ar    1  UNL1        0.1368
      6 N         141.8965  142.1678  166.0564 N.ar    1  UNL1       -0.1989
      7 C         139.9954  141.0507  169.3562 C.3     1  UNL1        0.4226
      8 F         138.9166  140.5484  170.2693 F       1  UNL1       -0.1657
      9 F         140.4197  139.6386  169.0806 F       1  UNL1       -0.1657
     10 F         139.5712  142.4628  169.6318 F       1  UNL1       -0.1657
     11 N         144.3109  143.0601  165.7039 N.pl3   1  UNL1       -0.2825
     12 H         145.1590  143.3905  166.0791 H       1  UNL1        0.1551
     13 C         143.6709  143.0574  161.2496 C.ar    1  UNL1        0.1563
     14 C         143.2162  144.2266  162.0720 C.ar    1  UNL1        0.0506
     15 C         143.4295  144.2275  163.5567 C.ar    1  UNL1        0.0191
     16 C         144.0976  143.0592  164.2191 C.ar    1  UNL1        0.0507
     17 C         144.5522  141.8901  163.3968 C.ar    1  UNL1        0.0191
     18 C         144.3389  141.8892  161.9121 C.ar    1  UNL1        0.0506
     19 C         141.7122  144.6611  158.7024 C.3     1  UNL1        0.2067
     20 N         142.4171  144.1267  159.9137 N.2     1  UNL1       -0.1212
     21 S         143.4575  143.0565  159.7649 S.3     1  UNL1       -0.0180
     22 C         143.2442  143.0556  158.2801 C.3     1  UNL1        0.2959
     23 O         144.4980  141.9863  159.6160 O.co2   1  UNL1       -0.6273
     24 N         139.4820  141.2755  166.4090 N.pl3   1  UNL1       -0.3183
     25 H         138.7857  141.9585  166.2758 H       1  UNL1        0.1482
     26 C         139.2075  139.8447  166.0514 C.3     1  UNL1        0.0849
     27 C         138.1852  138.9556  166.6951 C.3     1  UNL1        0.0209
     28 C         138.2531  137.6134  166.0289 C.3     1  UNL1        0.0032
     29 C         139.3173  137.6730  164.9734 C.3     1  UNL1        0.0177
     30 C         139.9072  139.0520  164.9874 C.3     1  UNL1        0.0755
     31 N         141.0042  139.5509  164.0941 N.3     1  UNL1       -0.2700
     32 C         142.3970  139.0152  164.2461 C.3     1  UNL1        0.0897
     33 C         140.7083  140.5853  163.0490 C.3     1  UNL1        0.0897
@<TRIPOS>UNITY_ATOM_ATTR
21 1
charge 1
23 1
charge -1
@<TRIPOS>BOND
     1    19    20    1
     2    20    21    2
     3    21    22    1
     4    21    23    1
     5    21    13    1
     6    13    14   ar
     7    14    15   ar
     8    15    16   ar
     9    16    11    1
    10    11     1    1
    11     1     2   ar
    12     2     3   ar
    13     3     4   ar
    14     4     7    1
    15     7     8    1
    16     7     9    1
    17     7    10    1
    18     4     5   ar
    19     5    24    1
    20    26    24    1
    21    26    27    1
    22    27    28    1
    23    28    29    1
    24    29    30    1
    25    30    31    1
    26    31    32    1
    27    31    33    1
    28     5     6   ar
    29    16    17   ar
    30    17    18   ar
    31    18    13   ar
    32     6     1   ar
    33    30    26    1
    34    11    12    1
    35    24    25    1
@<TRIPOS>MOLECULE
*****
 33 35 0 0 0
SMALL
GASTEIGER

@<TRIPOS>ATOM
      1 C         139.5664  139.9714  167.7081 C.ar    1  UNL1        0.2218
      2 N         139.4782  140.0662  169.2025 N.ar    1  UNL1       -0.2120
      3 C         140.4588  140.9119  169.9596 C.ar    1  UNL1        0.1085
      4 C         141.5276  141.6629  169.2223 C.ar    1  UNL1        0.1219
      5 C         141.6159  141.5681  167.7279 C.ar    1  UNL1        0.1368
      6 N         140.6353  140.7224  166.9708 N.ar    1  UNL1       -0.1989
      7 C         142.5083  142.5086  169.9794 C.3     1  UNL1        0.4226
      8 F         143.4888  143.3543  170.7365 F       1  UNL1       -0.1657
      9 F         143.4471  141.3421  170.0666 F       1  UNL1       -0.1657
     10 F         141.5694  143.6752  169.8923 F       1  UNL1       -0.1657
     11 N         138.5858  139.1257  166.9510 N.pl3   1  UNL1       -0.2825
     12 H         137.9113  138.5991  167.4377 H       1  UNL1        0.1551
     13 C         138.7273  138.9956  162.4551 C.ar    1  UNL1        0.1563
     14 C         139.2134  137.8235  163.2550 C.ar    1  UNL1        0.0506
     15 C         139.1662  137.8669  164.7537 C.ar    1  UNL1        0.0191
     16 C         138.6330  139.0824  165.4524 C.ar    1  UNL1        0.0507
     17 C         138.1469  140.2545  164.6525 C.ar    1  UNL1        0.0191
     18 C         138.1941  140.2111  163.1539 C.ar    1  UNL1        0.0506
     19 C         141.0328  138.5423  159.7392 C.3     1  UNL1        0.2067
     20 N         140.2528  138.7040  161.0102 N.2     1  UNL1       -0.1212
     21 S         138.7744  138.9523  160.9565 S.3     1  UNL1       -0.0180
     22 C         138.8216  138.9089  159.4579 C.3     1  UNL1        0.2959
     23 O         137.2961  139.2005  160.9028 O.co2   1  UNL1       -0.6273
     24 N         142.6848  142.3191  166.9906 N.pl3   1  UNL1       -0.3183
     25 H         143.5088  142.5878  167.4575 H       1  UNL1        0.1482
     26 C         142.4981  142.6605  165.5419 C.3     1  UNL1        0.0849
     27 C         141.5275  143.6622  164.9901 C.3     1  UNL1        0.0209
     28 C         141.6788  143.6809  163.4979 C.3     1  UNL1        0.0032
     29 C         142.7430  142.6907  163.1274 C.3     1  UNL1        0.0177
     30 C         143.2493  142.0601  164.3907 C.3     1  UNL1        0.0755
     31 N         144.3191  141.0129  164.4861 N.3     1  UNL1       -0.2700
     32 C         145.7072  141.3127  164.0030 C.3     1  UNL1        0.0897
     33 C         144.0008  139.6661  165.0645 C.3     1  UNL1        0.0897
@<TRIPOS>UNITY_ATOM_ATTR
21 1
charge 1
23 1
charge -1
@<TRIPOS>BOND
     1    19    20    1
     2    20    21    2
     3    21    22    1
     4    21    23    1
     5    21    13    1
     6    13    14   ar
     7    14    15   ar
     8    15    16   ar
     9    16    11    1
    10    11     1    1
    11     1     2   ar
    12     2     3   ar
    13     3     4   ar
    14     4     7    1
    15     7     8    1
    16     7     9    1
    17     7    10    1
    18     4     5   ar
    19     5    24    1
    20    26    24    1
    21    26    27    1
    22    27    28    1
    23    28    29    1
    24    29    30    1
    25    30    31    1
    26    31    32    1
    27    31    33    1
    28     5     6   ar
    29    16    17   ar
    30    17    18   ar
    31    18    13   ar
    32     6     1   ar
    33    30    26    1
    34    11    12    1
    35    24    25    1
@<TRIPOS>MOLECULE
*****
 33 35 0 0 0
SMALL
GASTEIGER

@<TRIPOS>ATOM
      1 C         142.6292  139.5546  167.4847 C.ar    1  UNL1        0.2218
      2 N         142.6493  139.5030  168.9837 N.ar    1  UNL1       -0.2120
      3 C         141.9302  140.5512  169.7800 C.ar    1  UNL1        0.1085
      4 C         141.1910  141.6511  169.0774 C.ar    1  UNL1        0.1219
      5 C         141.1708  141.7028  167.5784 C.ar    1  UNL1        0.1368
      6 N         141.8899  140.6545  166.7820 N.ar    1  UNL1       -0.1989
      7 C         140.4719  142.6994  169.8737 C.3     1  UNL1        0.4226
      8 F         139.7528  143.7475  170.6700 F       1  UNL1       -0.1657
      9 F         141.6651  143.6016  169.7636 F       1  UNL1       -0.1657
     10 F         139.2787  141.7971  169.9839 F       1  UNL1       -0.1657
     11 N         143.3482  138.5064  166.6884 N.pl3   1  UNL1       -0.2825
     12 H         143.9006  137.8326  167.1469 H       1  UNL1        0.1551
     13 C         142.9806  138.4411  162.2040 C.ar    1  UNL1        0.1563
     14 C         141.9409  137.7698  163.0516 C.ar    1  UNL1        0.0506
     15 C         142.0635  137.7916  164.5464 C.ar    1  UNL1        0.0191
     16 C         143.2257  138.4846  165.1936 C.ar    1  UNL1        0.0507
     17 C         144.2654  139.1558  164.3460 C.ar    1  UNL1        0.0191
     18 C         144.1428  139.1340  162.8512 C.ar    1  UNL1        0.0506
     19 C         140.5129  138.5281  159.5963 C.3     1  UNL1        0.2067
     20 N         141.3654  138.5044  160.8302 N.2     1  UNL1       -0.1212
     21 S         142.8581  138.4193  160.7091 S.3     1  UNL1       -0.0180
     22 C         142.7355  138.3975  159.2143 C.3     1  UNL1        0.2959
     23 O         144.3508  138.3342  160.5880 O.co2   1  UNL1       -0.6273
     24 N         140.4316  142.8027  166.8757 N.pl3   1  UNL1       -0.3183
     25 H         139.6017  143.1638  167.2632 H       1  UNL1        0.1482
     26 C         140.9568  143.3524  165.5826 C.3     1  UNL1        0.0849
     27 C         142.3650  143.2313  165.0803 C.3     1  UNL1        0.0209
     28 C         142.4444  143.9238  163.7521 C.3     1  UNL1        0.0032
     29 C         141.0853  144.4728  163.4335 C.3     1  UNL1        0.0177
     30 C         140.1659  144.1196  164.5648 C.3     1  UNL1        0.0755
     31 N         138.7110  144.4719  164.6615 N.3     1  UNL1       -0.2700
     32 C         137.7856  144.1550  163.5243 C.3     1  UNL1        0.0897
     33 C         138.1817  145.1410  165.8951 C.3     1  UNL1        0.0897
@<TRIPOS>UNITY_ATOM_ATTR
21 1
charge 1
23 1
charge -1
@<TRIPOS>BOND
     1    19    20    1
     2    20    21    2
     3    21    22    1
     4    21    23    1
     5    21    13    1
     6    13    14   ar
     7    14    15   ar
     8    15    16   ar
     9    16    11    1
    10    11     1    1
    11     1     2   ar
    12     2     3   ar
    13     3     4   ar
    14     4     7    1
    15     7     8    1
    16     7     9    1
    17     7    10    1
    18     4     5   ar
    19     5    24    1
    20    26    24    1
    21    26    27    1
    22    27    28    1
    23    28    29    1
    24    29    30    1
    25    30    31    1
    26    31    32    1
    27    31    33    1
    28     5     6   ar
    29    16    17   ar
    30    17    18   ar
    31    18    13   ar
    32     6     1   ar
    33    30    26    1
    34    11    12    1
    35    24    25    1
@<TRIPOS>MOLECULE
*****
 33 35 0 0 0
SMALL
GASTEIGER

@<TRIPOS>ATOM
      1 C         142.8715  139.4068  166.4891 C.ar    1  UNL1        0.2218
      2 N         142.9280  139.0467  167.9442 N.ar    1  UNL1       -0.2120
      3 C         141.9902  139.7001  168.9155 C.ar    1  UNL1        0.1085
      4 C         140.9959  140.7137  168.4319 C.ar    1  UNL1        0.1219
      5 C         140.9393  141.0739  166.9769 C.ar    1  UNL1        0.1368
      6 N         141.8772  140.4204  166.0055 N.ar    1  UNL1       -0.1989
      7 C         140.0581  141.3672  169.4033 C.3     1  UNL1        0.4226
      8 F         139.1203  142.0206  170.3747 F       1  UNL1       -0.1657
      9 F         139.0375  140.3011  169.1353 F       1  UNL1       -0.1657
     10 F         141.0786  142.4332  169.6713 F       1  UNL1       -0.1657
     11 N         143.8093  138.7534  165.5178 N.pl3   1  UNL1       -0.2825
     12 H         144.6171  138.2959  165.8454 H       1  UNL1        0.1551
     13 C         142.9300  138.8839  161.1064 C.ar    1  UNL1        0.1563
     14 C         142.0616  138.0714  162.0206 C.ar    1  UNL1        0.0506
     15 C         142.3547  138.0279  163.4910 C.ar    1  UNL1        0.0191
     16 C         143.5162  138.7969  164.0473 C.ar    1  UNL1        0.0507
     17 C         144.3846  139.6094  163.1332 C.ar    1  UNL1        0.0191
     18 C         144.0915  139.6529  161.6628 C.ar    1  UNL1        0.0506
     19 C         140.2162  138.5273  158.7815 C.3     1  UNL1        0.2067
     20 N         141.1923  138.6355  159.9153 N.2     1  UNL1       -0.1212
     21 S         142.6369  138.9274  159.6360 S.3     1  UNL1       -0.0180
     22 C         142.3438  138.9709  158.1656 C.3     1  UNL1        0.2959
     23 O         144.0815  139.2193  159.3567 O.co2   1  UNL1       -0.6273
     24 N         139.9450  142.0875  166.4932 N.pl3   1  UNL1       -0.3183
     25 H         139.8708  142.9589  166.9453 H       1  UNL1        0.1482
     26 C         139.0637  141.7733  165.3207 C.3     1  UNL1        0.0849
     27 C         138.5734  140.4118  164.9260 C.3     1  UNL1        0.0209
     28 C         137.7247  140.5626  163.6985 C.3     1  UNL1        0.0032
     29 C         137.6904  142.0174  163.3345 C.3     1  UNL1        0.0177
     30 C         138.5179  142.7656  164.3371 C.3     1  UNL1        0.0755
     31 N         138.7577  144.2463  164.3533 N.3     1  UNL1       -0.2700
     32 C         138.4645  145.0400  165.5919 C.3     1  UNL1        0.0897
     33 C         139.2906  144.9332  163.1310 C.3     1  UNL1        0.0897
@<TRIPOS>UNITY_ATOM_ATTR
21 1
charge 1
23 1
charge -1
@<TRIPOS>BOND
     1    19    20    1
     2    20    21    2
     3    21    22    1
     4    21    23    1
     5    21    13    1
     6    13    14   ar
     7    14    15   ar
     8    15    16   ar
     9    16    11    1
    10    11     1    1
    11     1     2   ar
    12     2     3   ar
    13     3     4   ar
    14     4     7    1
    15     7     8    1
    16     7     9    1
    17     7    10    1
    18     4     5   ar
    19     5    24    1
    20    26    24    1
    21    26    27    1
    22    27    28    1
    23    28    29    1
    24    29    30    1
    25    30    31    1
    26    31    32    1
    27    31    33    1
    28     5     6   ar
    29    16    17   ar
    30    17    18   ar
    31    18    13   ar
    32     6     1   ar
    33    30    26    1
    34    11    12    1
    35    24    25    1
