@<TRIPOS>MOLECULE
*****
 33 37 0 0 0
SMALL
GASTEIGER

@<TRIPOS>ATOM
      1 C         142.2163  139.1354  162.1850 C.3     1  UNL1        0.0747
      2 C         141.6681  140.5141  162.4059 C.3     1  UNL1        0.0369
      3 C         142.0294  141.2749  163.6471 C.3     1  UNL1        0.0741
      4 N         142.9390  140.6571  164.6674 N.3     1  UNL1       -0.2688
      5 C         143.4873  139.2784  164.4465 C.3     1  UNL1        0.0741
      6 C         143.1259  138.5176  163.2052 C.3     1  UNL1        0.0369
      7 O         144.0788  139.1303  159.8331 O.2     1  UNL1       -0.2668
      8 C         142.7862  138.3720  159.7679 C.2     1  UNL1        0.2806
      9 N         141.8550  138.3746  160.9438 N.am    1  UNL1       -0.2999
     10 H         141.0066  137.8770  160.9009 H       1  UNL1        0.1498
     11 C         142.4249  137.6112  158.5267 C.ar    1  UNL1        0.2014
     12 C         141.2964  138.0841  157.6589 C.ar    1  UNL1        0.0843
     13 C         140.9350  137.3234  156.4178 C.ar    1  UNL1        0.2018
     14 O         139.8066  137.7963  155.5500 O.2     1  UNL1       -0.2864
     15 C         141.7021  136.0895  156.0443 C.ar    1  UNL1        0.0737
     16 C         141.3407  135.3287  154.8031 C.ar    1  UNL1        0.0085
     17 C         142.1077  134.0950  154.4297 C.ar    1  UNL1        0.0299
     18 C         143.2361  133.6220  155.2974 C.ar    1  UNL1        0.1432
     19 F         144.0031  132.3882  154.9239 F       1  UNL1       -0.2041
     20 C         143.5975  134.3828  156.5386 C.ar    1  UNL1        0.0672
     21 C         142.8305  135.6166  156.9120 C.ar    1  UNL1        0.1508
     22 O         143.1919  136.3774  158.1532 O.2     1  UNL1       -0.4486
     23 C         143.3004  141.4179  165.9086 C.3     1  UNL1        0.0992
     24 C         142.3483  141.4590  167.0670 C.ar    1  UNL1       -0.0029
     25 C         142.4912  142.5195  168.1180 C.ar    1  UNL1        0.0004
     26 C         141.5391  142.5606  169.2764 C.ar    1  UNL1        0.0406
     27 C         140.4441  141.5411  169.3837 C.ar    1  UNL1        0.1863
     28 O         139.3642  141.3316  170.4035 O.2     1  UNL1       -0.3902
     29 C         138.5539  140.1414  169.9827 C.ar    1  UNL1        0.5213
     30 O         137.3720  139.5765  170.7136 O.2     1  UNL1       -0.2021
     31 O         139.1330  139.6154  168.7029 O.2     1  UNL1       -0.3902
     32 C         140.3012  140.4805  168.3327 C.ar    1  UNL1        0.1860
     33 C         141.2533  140.4394  167.1743 C.ar    1  UNL1        0.0380
@<TRIPOS>BOND
     1     7     8    2
     2     8     9   am
     3     9     1    1
     4     1     2    1
     5     2     3    1
     6     3     4    1
     7     4    23    1
     8    23    24    1
     9    24    25   ar
    10    25    26   ar
    11    26    27   ar
    12    27    28   ar
    13    28    29   ar
    14    29    30    2
    15    29    31   ar
    16    31    32   ar
    17    32    33   ar
    18     4     5    1
    19     5     6    1
    20     8    11    1
    21    11    12   ar
    22    12    13   ar
    23    13    14    2
    24    13    15   ar
    25    15    16   ar
    26    16    17   ar
    27    17    18   ar
    28    18    19    1
    29    18    20   ar
    30    20    21   ar
    31    21    22   ar
    32     6     1    1
    33    22    11   ar
    34    33    24   ar
    35    21    15   ar
    36    32    27   ar
    37     9    10    1
@<TRIPOS>MOLECULE
*****
 33 37 0 0 0
SMALL
GASTEIGER

@<TRIPOS>ATOM
      1 C         141.1113  138.8605  161.0116 C.3     1  UNL1        0.0747
      2 C         142.5402  138.4646  160.7846 C.3     1  UNL1        0.0369
      3 C         142.9901  138.0281  159.4219 C.3     1  UNL1        0.0741
      4 N         142.0111  137.9874  158.2861 N.3     1  UNL1       -0.2688
      5 C         140.5822  138.3833  158.5131 C.3     1  UNL1        0.0741
      6 C         140.1323  138.8199  159.8759 C.3     1  UNL1        0.0369
      7 O         140.8464  136.8474  163.2201 O.2     1  UNL1       -0.2668
      8 C         140.5289  138.2905  163.4786 C.2     1  UNL1        0.2806
      9 N         140.6614  139.2970  162.3743 N.am    1  UNL1       -0.2999
     10 H         140.4531  140.2441  162.5440 H       1  UNL1        0.1498
     11 C         140.0790  138.7271  164.8413 C.ar    1  UNL1        0.2014
     12 C         138.7682  138.2449  165.3885 C.ar    1  UNL1        0.0843
     13 C         138.3183  138.6815  166.7512 C.ar    1  UNL1        0.2018
     14 O         137.0075  138.1994  167.2984 O.2     1  UNL1       -0.2864
     15 C         139.1791  139.6002  167.5668 C.ar    1  UNL1        0.0737
     16 C         138.7292  140.0367  168.9294 C.ar    1  UNL1        0.0085
     17 C         139.5900  140.9554  169.7449 C.ar    1  UNL1        0.0299
     18 C         140.9007  141.4375  169.1977 C.ar    1  UNL1        0.1432
     19 F         141.7616  142.3562  170.0132 F       1  UNL1       -0.2041
     20 C         141.3507  141.0010  167.8350 C.ar    1  UNL1        0.0672
     21 C         140.4899  140.0823  167.0196 C.ar    1  UNL1        0.1508
     22 O         140.9398  139.6457  165.6568 O.2     1  UNL1       -0.4486
     23 C         142.4610  137.5509  156.9234 C.3     1  UNL1        0.0992
     24 C         142.2955  136.1211  156.5012 C.ar    1  UNL1       -0.0029
     25 C         141.3585  135.7730  155.3829 C.ar    1  UNL1        0.0004
     26 C         141.1929  134.3432  154.9607 C.ar    1  UNL1        0.0406
     27 C         141.9645  133.2615  155.6568 C.ar    1  UNL1        0.1863
     28 O         142.0077  131.7749  155.4617 O.2     1  UNL1       -0.3902
     29 C         142.9715  131.2042  156.4594 C.ar    1  UNL1        0.5213
     30 O         143.3214  129.7541  156.6175 O.2     1  UNL1       -0.2021
     31 O         143.5240  132.3381  157.2712 O.2     1  UNL1       -0.3902
     32 C         142.9016  133.6096  156.7751 C.ar    1  UNL1        0.1860
     33 C         143.0671  135.0394  157.1973 C.ar    1  UNL1        0.0380
@<TRIPOS>BOND
     1     7     8    2
     2     8     9   am
     3     9     1    1
     4     1     2    1
     5     2     3    1
     6     3     4    1
     7     4    23    1
     8    23    24    1
     9    24    25   ar
    10    25    26   ar
    11    26    27   ar
    12    27    28   ar
    13    28    29   ar
    14    29    30    2
    15    29    31   ar
    16    31    32   ar
    17    32    33   ar
    18     4     5    1
    19     5     6    1
    20     8    11    1
    21    11    12   ar
    22    12    13   ar
    23    13    14    2
    24    13    15   ar
    25    15    16   ar
    26    16    17   ar
    27    17    18   ar
    28    18    19    1
    29    18    20   ar
    30    20    21   ar
    31    21    22   ar
    32     6     1    1
    33    22    11   ar
    34    33    24   ar
    35    21    15   ar
    36    32    27   ar
    37     9    10    1
@<TRIPOS>MOLECULE
*****
 33 37 0 0 0
SMALL
GASTEIGER

@<TRIPOS>ATOM
      1 C         142.5543  138.5715  161.4305 C.3     1  UNL1        0.0747
      2 C         141.5121  139.5351  161.9156 C.3     1  UNL1        0.0369
      3 C         141.8201  140.4631  163.0531 C.3     1  UNL1        0.0741
      4 N         143.1704  140.4275  163.7056 N.3     1  UNL1       -0.2688
      5 C         144.2125  139.4639  163.2205 C.3     1  UNL1        0.0741
      6 C         143.9045  138.5359  162.0829 C.3     1  UNL1        0.0369
      7 O         143.5648  139.1899  158.6743 O.2     1  UNL1       -0.2668
      8 C         142.7515  137.9527  158.9149 C.2     1  UNL1        0.2806
      9 N         142.2463  137.6435  160.2930 N.am    1  UNL1       -0.2999
     10 H         141.7125  136.8315  160.4509 H       1  UNL1        0.1498
     11 C         142.4435  137.0247  157.7774 C.ar    1  UNL1        0.2014
     12 C         141.3294  137.3479  156.8264 C.ar    1  UNL1        0.0843
     13 C         141.0213  136.4199  155.6890 C.ar    1  UNL1        0.2018
     14 O         139.9072  136.7431  154.7380 O.2     1  UNL1       -0.2864
     15 C         141.8273  135.1686  155.5024 C.ar    1  UNL1        0.0737
     16 C         141.5193  134.2407  154.3649 C.ar    1  UNL1        0.0085
     17 C         142.3253  132.9895  154.1784 C.ar    1  UNL1        0.0299
     18 C         143.4394  132.6663  155.1294 C.ar    1  UNL1        0.1432
     19 F         144.2455  131.4151  154.9428 F       1  UNL1       -0.2041
     20 C         143.7475  133.5943  156.2668 C.ar    1  UNL1        0.0672
     21 C         142.9414  134.8455  156.4534 C.ar    1  UNL1        0.1508
     22 O         143.2495  135.7735  157.5909 O.2     1  UNL1       -0.4486
     23 C         143.4784  141.3555  164.8430 C.3     1  UNL1        0.0992
     24 C         142.9960  141.0325  166.2262 C.ar    1  UNL1       -0.0029
     25 C         142.9823  139.6103  166.7027 C.ar    1  UNL1        0.0004
     26 C         142.4999  139.2874  168.0858 C.ar    1  UNL1        0.0406
     27 C         142.0312  140.3866  168.9924 C.ar    1  UNL1        0.1863
     28 O         141.5048  140.3734  170.3969 O.2     1  UNL1       -0.3902
     29 C         141.1931  141.7875  170.7884 C.ar    1  UNL1        0.5213
     30 O         140.6440  142.2357  172.1105 O.2     1  UNL1       -0.2021
     31 O         141.5270  142.6746  169.6259 O.2     1  UNL1       -0.3902
     32 C         142.0449  141.8088  168.5159 C.ar    1  UNL1        0.1860
     33 C         142.5273  142.1318  167.1328 C.ar    1  UNL1        0.0380
@<TRIPOS>BOND
     1     7     8    2
     2     8     9   am
     3     9     1    1
     4     1     2    1
     5     2     3    1
     6     3     4    1
     7     4    23    1
     8    23    24    1
     9    24    25   ar
    10    25    26   ar
    11    26    27   ar
    12    27    28   ar
    13    28    29   ar
    14    29    30    2
    15    29    31   ar
    16    31    32   ar
    17    32    33   ar
    18     4     5    1
    19     5     6    1
    20     8    11    1
    21    11    12   ar
    22    12    13   ar
    23    13    14    2
    24    13    15   ar
    25    15    16   ar
    26    16    17   ar
    27    17    18   ar
    28    18    19    1
    29    18    20   ar
    30    20    21   ar
    31    21    22   ar
    32     6     1    1
    33    22    11   ar
    34    33    24   ar
    35    21    15   ar
    36    32    27   ar
    37     9    10    1
@<TRIPOS>MOLECULE
*****
 33 37 0 0 0
SMALL
GASTEIGER

@<TRIPOS>ATOM
      1 C         140.6479  144.4860  158.7527 C.3     1  UNL1        0.0747
      2 C         141.6963  145.4243  158.2328 C.3     1  UNL1        0.0369
      3 C         141.6468  145.8888  156.8074 C.3     1  UNL1        0.0741
      4 N         140.5488  145.4149  155.9018 N.3     1  UNL1       -0.2688
      5 C         139.5004  144.4766  156.4217 C.3     1  UNL1        0.0741
      6 C         139.5499  144.0121  157.8472 C.3     1  UNL1        0.0369
      7 O         139.3903  146.1425  160.9147 O.2     1  UNL1       -0.2668
      8 C         140.0686  144.8497  161.2591 C.2     1  UNL1        0.2806
      9 N         140.6974  144.0215  160.1780 N.am    1  UNL1       -0.2999
     10 H         141.1426  143.1730  160.4041 H       1  UNL1        0.1498
     11 C         140.1181  144.3852  162.6845 C.ar    1  UNL1        0.2014
     12 C         139.2201  145.0123  163.7093 C.ar    1  UNL1        0.0843
     13 C         139.2696  144.5478  165.1347 C.ar    1  UNL1        0.2018
     14 O         138.3715  145.1749  166.1595 O.2     1  UNL1       -0.2864
     15 C         140.2171  143.4561  165.5353 C.ar    1  UNL1        0.0737
     16 C         140.2666  142.9916  166.9607 C.ar    1  UNL1        0.0085
     17 C         141.2142  141.9000  167.3612 C.ar    1  UNL1        0.0299
     18 C         142.1122  141.2729  166.3364 C.ar    1  UNL1        0.1432
     19 F         143.0598  140.1812  166.7371 F       1  UNL1       -0.2041
     20 C         142.0627  141.7374  164.9111 C.ar    1  UNL1        0.0672
     21 C         141.1152  142.8290  164.5105 C.ar    1  UNL1        0.1508
     22 O         141.0656  143.2935  163.0851 O.2     1  UNL1       -0.4486
     23 C         140.4993  145.8794  154.4764 C.3     1  UNL1        0.0992
     24 C         140.2779  147.3305  154.1677 C.ar    1  UNL1       -0.0029
     25 C         140.8561  147.9285  152.9195 C.ar    1  UNL1        0.0004
     26 C         140.6347  149.3796  152.6108 C.ar    1  UNL1        0.0406
     27 C         139.8352  150.2327  153.5503 C.ar    1  UNL1        0.1863
     28 O         139.4533  151.6828  153.5111 O.2     1  UNL1       -0.3902
     29 C         138.6391  151.9810  154.7350 C.ar    1  UNL1        0.5213
     30 O         138.0496  153.3115  155.0993 O.2     1  UNL1       -0.2021
     31 O         138.5178  150.7153  155.5308 O.2     1  UNL1       -0.3902
     32 C         139.2570  149.6348  154.7986 C.ar    1  UNL1        0.1860
     33 C         139.4784  148.1837  155.1073 C.ar    1  UNL1        0.0380
@<TRIPOS>BOND
     1     7     8    2
     2     8     9   am
     3     9     1    1
     4     1     2    1
     5     2     3    1
     6     3     4    1
     7     4    23    1
     8    23    24    1
     9    24    25   ar
    10    25    26   ar
    11    26    27   ar
    12    27    28   ar
    13    28    29   ar
    14    29    30    2
    15    29    31   ar
    16    31    32   ar
    17    32    33   ar
    18     4     5    1
    19     5     6    1
    20     8    11    1
    21    11    12   ar
    22    12    13   ar
    23    13    14    2
    24    13    15   ar
    25    15    16   ar
    26    16    17   ar
    27    17    18   ar
    28    18    19    1
    29    18    20   ar
    30    20    21   ar
    31    21    22   ar
    32     6     1    1
    33    22    11   ar
    34    33    24   ar
    35    21    15   ar
    36    32    27   ar
    37     9    10    1
@<TRIPOS>MOLECULE
*****
 33 37 0 0 0
SMALL
GASTEIGER

@<TRIPOS>ATOM
      1 C         142.9271  138.8299  157.3528 C.3     1  UNL1        0.0747
      2 C         142.2154  137.5721  157.7548 C.3     1  UNL1        0.0369
      3 C         142.3144  136.3469  156.8952 C.3     1  UNL1        0.0741
      4 N         143.1252  136.3793  155.6336 N.3     1  UNL1       -0.2688
      5 C         143.8369  137.6370  155.2316 C.3     1  UNL1        0.0741
      6 C         143.7379  138.8623  156.0912 C.3     1  UNL1        0.0369
      7 O         144.2518  138.8853  160.0439 O.2     1  UNL1       -0.2668
      8 C         143.4904  140.0829  159.5579 C.2     1  UNL1        0.2806
      9 N         142.8281  140.0551  158.2124 N.am    1  UNL1       -0.2999
     10 H         142.3284  140.8411  157.8934 H       1  UNL1        0.1498
     11 C         143.3913  141.3082  160.4175 C.ar    1  UNL1        0.2014
     12 C         142.6234  142.5029  159.9348 C.ar    1  UNL1        0.0843
     13 C         142.5243  143.7282  160.7943 C.ar    1  UNL1        0.2018
     14 O         141.7564  144.9228  160.3115 O.2     1  UNL1       -0.2864
     15 C         143.1932  143.7588  162.1366 C.ar    1  UNL1        0.0737
     16 C         143.0941  144.9841  162.9961 C.ar    1  UNL1        0.0085
     17 C         143.7630  145.0148  164.3383 C.ar    1  UNL1        0.0299
     18 C         144.5309  143.8201  164.8211 C.ar    1  UNL1        0.1432
     19 F         145.1998  143.8508  166.1634 F       1  UNL1       -0.2041
     20 C         144.6300  142.5948  163.9616 C.ar    1  UNL1        0.0672
     21 C         143.9611  142.5642  162.6193 C.ar    1  UNL1        0.1508
     22 O         144.0602  141.3388  161.7597 O.2     1  UNL1       -0.4486
     23 C         143.2242  135.1541  154.7740 C.3     1  UNL1        0.0992
     24 C         143.1485  133.7921  155.3979 C.ar    1  UNL1       -0.0029
     25 C         142.0096  132.8756  155.0621 C.ar    1  UNL1        0.0004
     26 C         141.9338  131.5136  155.6860 C.ar    1  UNL1        0.0406
     27 C         142.9970  131.0681  156.6457 C.ar    1  UNL1        0.1863
     28 O         143.1873  129.7924  157.4115 O.2     1  UNL1       -0.3902
     29 C         144.4439  129.9205  158.2206 C.ar    1  UNL1        0.5213
     30 O         145.0140  128.8769  159.1350 O.2     1  UNL1       -0.2021
     31 O         145.0302  131.2753  157.9549 O.2     1  UNL1       -0.3902
     32 C         144.1359  131.9846  156.9815 C.ar    1  UNL1        0.1860
     33 C         144.2117  133.3466  156.3576 C.ar    1  UNL1        0.0380
@<TRIPOS>BOND
     1     7     8    2
     2     8     9   am
     3     9     1    1
     4     1     2    1
     5     2     3    1
     6     3     4    1
     7     4    23    1
     8    23    24    1
     9    24    25   ar
    10    25    26   ar
    11    26    27   ar
    12    27    28   ar
    13    28    29   ar
    14    29    30    2
    15    29    31   ar
    16    31    32   ar
    17    32    33   ar
    18     4     5    1
    19     5     6    1
    20     8    11    1
    21    11    12   ar
    22    12    13   ar
    23    13    14    2
    24    13    15   ar
    25    15    16   ar
    26    16    17   ar
    27    17    18   ar
    28    18    19    1
    29    18    20   ar
    30    20    21   ar
    31    21    22   ar
    32     6     1    1
    33    22    11   ar
    34    33    24   ar
    35    21    15   ar
    36    32    27   ar
    37     9    10    1
@<TRIPOS>MOLECULE
*****
 33 37 0 0 0
SMALL
GASTEIGER

@<TRIPOS>ATOM
      1 C         143.5425  138.8267  161.3085 C.3     1  UNL1        0.0747
      2 C         142.3647  137.9276  161.5419 C.3     1  UNL1        0.0369
      3 C         141.8136  137.7577  162.9265 C.3     1  UNL1        0.0741
      4 N         142.4402  138.4868  164.0779 N.3     1  UNL1       -0.2688
      5 C         143.6181  139.3859  163.8446 C.3     1  UNL1        0.0741
      6 C         144.1692  139.5558  162.4599 C.3     1  UNL1        0.0369
      7 O         142.2808  140.7889  159.4223 O.2     1  UNL1       -0.2668
      8 C         143.4628  139.9778  158.9807 C.2     1  UNL1        0.2806
      9 N         144.0936  138.9967  159.9239 N.am    1  UNL1       -0.2999
     10 H         144.8694  138.4643  159.6341 H       1  UNL1        0.1498
     11 C         144.0140  140.1477  157.5960 C.ar    1  UNL1        0.2014
     12 C         143.3151  139.5174  156.4280 C.ar    1  UNL1        0.0843
     13 C         143.8663  139.6873  155.0434 C.ar    1  UNL1        0.2018
     14 O         143.1674  139.0569  153.8754 O.2     1  UNL1       -0.2864
     15 C         145.1163  140.4875  154.8266 C.ar    1  UNL1        0.0737
     16 C         145.6675  140.6574  153.4420 C.ar    1  UNL1        0.0085
     17 C         146.9175  141.4577  153.2253 C.ar    1  UNL1        0.0299
     18 C         147.6164  142.0880  154.3933 C.ar    1  UNL1        0.1432
     19 F         148.8665  142.8883  154.1766 F       1  UNL1       -0.2041
     20 C         147.0653  141.9181  155.7780 C.ar    1  UNL1        0.0672
     21 C         145.8152  141.1179  155.9946 C.ar    1  UNL1        0.1508
     22 O         145.2640  140.9479  157.3794 O.2     1  UNL1       -0.4486
     23 C         141.8891  138.3168  165.4626 C.3     1  UNL1        0.0992
     24 C         141.6937  139.5145  166.3443 C.ar    1  UNL1       -0.0029
     25 C         140.4695  140.3675  166.1904 C.ar    1  UNL1        0.0004
     26 C         140.2742  141.5651  167.0721 C.ar    1  UNL1        0.0406
     27 C         141.3030  141.9098  168.1078 C.ar    1  UNL1        0.1863
     28 O         141.3823  143.0203  169.1130 O.2     1  UNL1       -0.3902
     29 C         142.6556  142.8536  169.8883 C.ar    1  UNL1        0.5213
     30 O         143.1368  143.7442  170.9953 O.2     1  UNL1       -0.2021
     31 O         143.3632  141.6402  169.3622 O.2     1  UNL1       -0.3902
     32 C         142.5272  141.0569  168.2617 C.ar    1  UNL1        0.1860
     33 C         142.7225  139.8592  167.3800 C.ar    1  UNL1        0.0380
@<TRIPOS>BOND
     1     7     8    2
     2     8     9   am
     3     9     1    1
     4     1     2    1
     5     2     3    1
     6     3     4    1
     7     4    23    1
     8    23    24    1
     9    24    25   ar
    10    25    26   ar
    11    26    27   ar
    12    27    28   ar
    13    28    29   ar
    14    29    30    2
    15    29    31   ar
    16    31    32   ar
    17    32    33   ar
    18     4     5    1
    19     5     6    1
    20     8    11    1
    21    11    12   ar
    22    12    13   ar
    23    13    14    2
    24    13    15   ar
    25    15    16   ar
    26    16    17   ar
    27    17    18   ar
    28    18    19    1
    29    18    20   ar
    30    20    21   ar
    31    21    22   ar
    32     6     1    1
    33    22    11   ar
    34    33    24   ar
    35    21    15   ar
    36    32    27   ar
    37     9    10    1
@<TRIPOS>MOLECULE
*****
 33 37 0 0 0
SMALL
GASTEIGER

@<TRIPOS>ATOM
      1 C         142.0993  139.3397  162.3402 C.3     1  UNL1        0.0747
      2 C         143.2871  138.5654  161.8507 C.3     1  UNL1        0.0369
      3 C         143.5631  138.4657  160.3797 C.3     1  UNL1        0.0741
      4 N         142.6511  139.1402  159.3981 N.3     1  UNL1       -0.2688
      5 C         141.4633  139.9145  159.8876 C.3     1  UNL1        0.0741
      6 C         141.1875  140.0143  161.3587 C.3     1  UNL1        0.0369
      7 O         143.7720  141.1397  164.0614 O.2     1  UNL1       -0.2668
      8 C         142.6597  140.3395  164.6718 C.2     1  UNL1        0.2806
      9 N         141.8234  139.4395  163.8112 N.am    1  UNL1       -0.2999
     10 H         141.0934  138.9143  164.2118 H       1  UNL1        0.1498
     11 C         142.3838  140.4392  166.1429 C.ar    1  UNL1        0.2014
     12 C         142.8606  139.3610  167.0702 C.ar    1  UNL1        0.0843
     13 C         142.5847  139.4607  168.5412 C.ar    1  UNL1        0.2018
     14 O         143.0616  138.3824  169.4685 O.2     1  UNL1       -0.2864
     15 C         141.8319  140.6387  169.0849 C.ar    1  UNL1        0.0737
     16 C         141.5560  140.7384  170.5559 C.ar    1  UNL1        0.0085
     17 C         140.8032  141.9164  171.0996 C.ar    1  UNL1        0.0299
     18 C         140.3263  142.9947  170.1723 C.ar    1  UNL1        0.1432
     19 F         139.5735  144.1727  170.7160 F       1  UNL1       -0.2041
     20 C         140.6022  142.8949  168.7013 C.ar    1  UNL1        0.0672
     21 C         141.3550  141.7170  168.1576 C.ar    1  UNL1        0.1508
     22 O         141.6310  141.6172  166.6865 O.2     1  UNL1       -0.4486
     23 C         142.9270  139.0404  157.9271 C.3     1  UNL1        0.0992
     24 C         142.4207  137.8634  157.1472 C.ar    1  UNL1       -0.0029
     25 C         141.3857  138.0603  156.0796 C.ar    1  UNL1        0.0004
     26 C         140.8793  136.8833  155.2997 C.ar    1  UNL1        0.0406
     27 C         141.4081  135.5094  155.5874 C.ar    1  UNL1        0.1863
     28 O         141.1006  134.1695  154.9872 O.2     1  UNL1       -0.3902
     29 C         141.9456  133.1445  155.6839 C.ar    1  UNL1        0.5213
     30 O         141.9586  131.6717  155.3997 O.2     1  UNL1       -0.2021
     31 O         142.7754  133.8509  156.7146 O.2     1  UNL1       -0.3902
     32 C         142.4432  135.3125  156.6550 C.ar    1  UNL1        0.1860
     33 C         142.9495  136.4895  157.4349 C.ar    1  UNL1        0.0380
@<TRIPOS>BOND
     1     7     8    2
     2     8     9   am
     3     9     1    1
     4     1     2    1
     5     2     3    1
     6     3     4    1
     7     4    23    1
     8    23    24    1
     9    24    25   ar
    10    25    26   ar
    11    26    27   ar
    12    27    28   ar
    13    28    29   ar
    14    29    30    2
    15    29    31   ar
    16    31    32   ar
    17    32    33   ar
    18     4     5    1
    19     5     6    1
    20     8    11    1
    21    11    12   ar
    22    12    13   ar
    23    13    14    2
    24    13    15   ar
    25    15    16   ar
    26    16    17   ar
    27    17    18   ar
    28    18    19    1
    29    18    20   ar
    30    20    21   ar
    31    21    22   ar
    32     6     1    1
    33    22    11   ar
    34    33    24   ar
    35    21    15   ar
    36    32    27   ar
    37     9    10    1
@<TRIPOS>MOLECULE
*****
 33 37 0 0 0
SMALL
GASTEIGER

@<TRIPOS>ATOM
      1 C         140.4797  138.2816  161.2911 C.3     1  UNL1        0.0747
      2 C         141.9018  137.9930  160.9115 C.3     1  UNL1        0.0369
      3 C         142.2959  137.9395  159.4652 C.3     1  UNL1        0.0741
      4 N         141.2679  138.1746  158.3985 N.3     1  UNL1       -0.2688
      5 C         139.8457  138.4632  158.7781 C.3     1  UNL1        0.0741
      6 C         139.4516  138.5167  160.2245 C.3     1  UNL1        0.0369
      7 O         140.5156  140.8972  162.7599 O.2     1  UNL1       -0.2668
      8 C         140.1035  139.6429  163.4718 C.2     1  UNL1        0.2806
      9 N         140.0855  138.3350  162.7374 N.am    1  UNL1       -0.2999
     10 H         139.8151  137.5118  163.2047 H       1  UNL1        0.1498
     11 C         139.7093  139.6963  164.9182 C.ar    1  UNL1        0.2014
     12 C         138.6113  138.8115  165.4294 C.ar    1  UNL1        0.0843
     13 C         138.2171  138.8649  166.8757 C.ar    1  UNL1        0.2018
     14 O         137.1191  137.9800  167.3870 O.2     1  UNL1       -0.2864
     15 C         138.9210  139.8031  167.8108 C.ar    1  UNL1        0.0737
     16 C         138.5269  139.8565  169.2570 C.ar    1  UNL1        0.0085
     17 C         139.2307  140.7947  170.1920 C.ar    1  UNL1        0.0299
     18 C         140.3288  141.6796  169.6808 C.ar    1  UNL1        0.1432
     19 F         141.0327  142.6178  170.6158 F       1  UNL1       -0.2041
     20 C         140.7229  141.6262  168.2345 C.ar    1  UNL1        0.0672
     21 C         140.0191  140.6879  167.2995 C.ar    1  UNL1        0.1508
     22 O         140.4132  140.6345  165.8531 O.2     1  UNL1       -0.4486
     23 C         141.6620  138.1211  156.9522 C.3     1  UNL1        0.0992
     24 C         142.9390  138.7640  156.4986 C.ar    1  UNL1       -0.0029
     25 C         143.7405  138.1422  155.3936 C.ar    1  UNL1        0.0004
     26 C         145.0176  138.7851  154.9400 C.ar    1  UNL1        0.0406
     27 C         145.4932  140.0499  155.5913 C.ar    1  UNL1        0.1863
     28 O         146.7032  140.9052  155.3585 O.2     1  UNL1       -0.3902
     29 C         146.6496  142.0557  156.3195 C.ar    1  UNL1        0.5213
     30 O         147.6615  143.1571  156.4336 O.2     1  UNL1       -0.2021
     31 O         145.4064  141.9114  157.1463 O.2     1  UNL1       -0.3902
     32 C         144.6917  140.6717  156.6963 C.ar    1  UNL1        0.1860
     33 C         143.4146  140.0288  157.1499 C.ar    1  UNL1        0.0380
@<TRIPOS>BOND
     1     7     8    2
     2     8     9   am
     3     9     1    1
     4     1     2    1
     5     2     3    1
     6     3     4    1
     7     4    23    1
     8    23    24    1
     9    24    25   ar
    10    25    26   ar
    11    26    27   ar
    12    27    28   ar
    13    28    29   ar
    14    29    30    2
    15    29    31   ar
    16    31    32   ar
    17    32    33   ar
    18     4     5    1
    19     5     6    1
    20     8    11    1
    21    11    12   ar
    22    12    13   ar
    23    13    14    2
    24    13    15   ar
    25    15    16   ar
    26    16    17   ar
    27    17    18   ar
    28    18    19    1
    29    18    20   ar
    30    20    21   ar
    31    21    22   ar
    32     6     1    1
    33    22    11   ar
    34    33    24   ar
    35    21    15   ar
    36    32    27   ar
    37     9    10    1
@<TRIPOS>MOLECULE
*****
 33 37 0 0 0
SMALL
GASTEIGER

@<TRIPOS>ATOM
      1 C         140.9207  141.7818  160.9782 C.3     1  UNL1        0.0747
      2 C         140.3747  142.2269  162.3025 C.3     1  UNL1        0.0369
      3 C         140.6227  141.4031  163.5312 C.3     1  UNL1        0.0741
      4 N         141.4168  140.1341  163.4357 N.3     1  UNL1       -0.2688
      5 C         141.9629  139.6890  162.1115 C.3     1  UNL1        0.0741
      6 C         141.7148  140.5129  160.8827 C.3     1  UNL1        0.0369
      7 O         142.9844  143.7523  160.0516 O.2     1  UNL1       -0.2668
      8 C         141.7045  143.5908  159.2862 C.2     1  UNL1        0.2806
      9 N         140.6727  142.6056  159.7495 N.am    1  UNL1       -0.2999
     10 H         139.8327  142.4996  159.2471 H       1  UNL1        0.1498
     11 C         141.4565  144.4146  158.0574 C.ar    1  UNL1        0.2014
     12 C         142.2183  144.1297  156.7971 C.ar    1  UNL1        0.0843
     13 C         141.9703  144.9534  155.5683 C.ar    1  UNL1        0.2018
     14 O         142.7321  144.6685  154.3080 O.2     1  UNL1       -0.2864
     15 C         140.9604  146.0621  155.5998 C.ar    1  UNL1        0.0737
     16 C         140.7123  146.8859  154.3711 C.ar    1  UNL1        0.0085
     17 C         139.7025  147.9945  154.4026 C.ar    1  UNL1        0.0299
     18 C         138.9407  148.2794  155.6630 C.ar    1  UNL1        0.1432
     19 F         137.9308  149.3882  155.6945 F       1  UNL1       -0.2041
     20 C         139.1887  147.4557  156.8917 C.ar    1  UNL1        0.0672
     21 C         140.1985  146.3471  156.8602 C.ar    1  UNL1        0.1508
     22 O         140.4466  145.5233  158.0890 O.2     1  UNL1       -0.4486
     23 C         141.6648  139.3104  164.6645 C.3     1  UNL1        0.0992
     24 C         140.9900  139.6674  165.9556 C.ar    1  UNL1       -0.0029
     25 C         139.5569  139.2871  166.1831 C.ar    1  UNL1        0.0004
     26 C         138.8821  139.6441  167.4743 C.ar    1  UNL1        0.0406
     27 C         139.6402  140.3814  168.5379 C.ar    1  UNL1        0.1863
     28 O         139.2432  140.8648  169.9013 O.2     1  UNL1       -0.3902
     29 C         140.4308  141.5439  170.5164 C.ar    1  UNL1        0.5213
     30 O         140.4789  142.1758  171.8760 O.2     1  UNL1       -0.2021
     31 O         141.5619  141.4802  169.5333 O.2     1  UNL1       -0.3902
     32 C         141.0733  140.7618  168.3105 C.ar    1  UNL1        0.1860
     33 C         141.7481  140.4047  167.0193 C.ar    1  UNL1        0.0380
@<TRIPOS>BOND
     1     7     8    2
     2     8     9   am
     3     9     1    1
     4     1     2    1
     5     2     3    1
     6     3     4    1
     7     4    23    1
     8    23    24    1
     9    24    25   ar
    10    25    26   ar
    11    26    27   ar
    12    27    28   ar
    13    28    29   ar
    14    29    30    2
    15    29    31   ar
    16    31    32   ar
    17    32    33   ar
    18     4     5    1
    19     5     6    1
    20     8    11    1
    21    11    12   ar
    22    12    13   ar
    23    13    14    2
    24    13    15   ar
    25    15    16   ar
    26    16    17   ar
    27    17    18   ar
    28    18    19    1
    29    18    20   ar
    30    20    21   ar
    31    21    22   ar
    32     6     1    1
    33    22    11   ar
    34    33    24   ar
    35    21    15   ar
    36    32    27   ar
    37     9    10    1
