@<TRIPOS>MOLECULE
*****
 21 21 0 0 0
SMALL
GASTEIGER

@<TRIPOS>ATOM
      1 C         140.5496  140.7273  169.6735 C.3     1  UNL1        0.1498
      2 C         139.7091  140.1276  168.5854 C.1     1  UNL1       -0.0730
      3 C         138.8686  139.5279  167.4973 C.1     1  UNL1       -0.0893
      4 C         138.0281  138.9282  166.4092 C.3     1  UNL1        0.0808
      5 C         138.4620  137.6576  165.7405 C.3     1  UNL1        0.0403
      6 C         139.3711  137.7099  164.5486 C.ar    1  UNL1       -0.0212
      7 C         138.7991  137.9179  163.1776 C.ar    1  UNL1       -0.0042
      8 C         139.7082  137.9703  161.9857 C.ar    1  UNL1       -0.0003
      9 C         141.1893  137.8146  162.1646 C.ar    1  UNL1       -0.0000
     10 C         141.7613  137.6066  163.5356 C.ar    1  UNL1       -0.0003
     11 C         140.8522  137.5542  164.7275 C.ar    1  UNL1       -0.0042
     12 N         141.6725  141.6592  169.3264 N.3     1  UNL1       -0.2618
     13 C         141.7199  143.0330  169.9268 C.3     1  UNL1        0.0730
     14 C         140.5312  143.9412  169.8162 C.3     1  UNL1        0.0188
     15 C         142.7481  141.2174  168.3788 C.3     1  UNL1        0.0730
     16 C         142.7143  141.6610  166.9463 C.3     1  UNL1        0.0174
     17 C         142.1300  140.7629  165.8966 C.3     1  UNL1        0.0014
     18 C         141.6485  141.3404  164.5988 C.3     1  UNL1        0.0000
     19 C         140.1974  141.2493  164.2297 C.3     1  UNL1        0.0000
     20 C         139.6626  143.3639  165.6411 C.3     1  UNL1        0.0000
     21 C         139.1976  142.1518  164.8899 C.3     1  UNL1        0.0000
@<TRIPOS>BOND
     1    20    21    1
     2    21    19    1
     3    19    18    1
     4    18    17    1
     5    17    16    1
     6    16    15    1
     7    15    12    1
     8    12    13    1
     9    13    14    1
    10    12     1    1
    11     1     2    1
    12     2     3    3
    13     3     4    1
    14     4     5    1
    15     5     6    1
    16     6     7   ar
    17     7     8   ar
    18     8     9   ar
    19     9    10   ar
    20    10    11   ar
    21    11     6   ar
@<TRIPOS>MOLECULE
*****
 21 21 0 0 0
SMALL
GASTEIGER

@<TRIPOS>ATOM
      1 C         137.2240  141.8561  163.2151 C.3     1  UNL1        0.1498
      2 C         137.8118  140.9859  164.2861 C.1     1  UNL1       -0.0730
      3 C         138.3996  140.1156  165.3571 C.1     1  UNL1       -0.0893
      4 C         138.9875  139.2454  166.4281 C.3     1  UNL1        0.0808
      5 C         139.1742  139.7856  167.8149 C.3     1  UNL1        0.0403
      6 C         140.3683  140.6353  168.1344 C.ar    1  UNL1       -0.0212
      7 C         141.7218  140.2534  167.6127 C.ar    1  UNL1       -0.0042
      8 C         142.9159  141.1031  167.9321 C.ar    1  UNL1       -0.0003
      9 C         142.7566  142.3347  168.7733 C.ar    1  UNL1       -0.0000
     10 C         141.4031  142.7167  169.2950 C.ar    1  UNL1       -0.0003
     11 C         140.2090  141.8669  168.9756 C.ar    1  UNL1       -0.0042
     12 N         138.0971  142.8222  162.4704 N.3     1  UNL1       -0.2618
     13 C         138.9897  142.3313  161.3694 C.3     1  UNL1        0.0730
     14 C         140.4604  142.1660  161.6136 C.3     1  UNL1        0.0188
     15 C         138.0776  144.2791  162.8268 C.3     1  UNL1        0.0730
     16 C         139.0638  144.8220  163.8182 C.3     1  UNL1        0.0174
     17 C         138.9352  144.4740  165.2715 C.3     1  UNL1        0.0014
     18 C         139.9300  143.5526  165.9129 C.3     1  UNL1        0.0000
     19 C         140.9284  142.8201  165.0662 C.3     1  UNL1        0.0000
     20 C         142.7743  144.3391  164.0487 C.3     1  UNL1        0.0000
     21 C         142.3559  143.2789  165.0238 C.3     1  UNL1        0.0000
@<TRIPOS>BOND
     1    20    21    1
     2    21    19    1
     3    19    18    1
     4    18    17    1
     5    17    16    1
     6    16    15    1
     7    15    12    1
     8    12    13    1
     9    13    14    1
    10    12     1    1
    11     1     2    1
    12     2     3    3
    13     3     4    1
    14     4     5    1
    15     5     6    1
    16     6     7   ar
    17     7     8   ar
    18     8     9   ar
    19     9    10   ar
    20    10    11   ar
    21    11     6   ar
@<TRIPOS>MOLECULE
*****
 21 21 0 0 0
SMALL
GASTEIGER

@<TRIPOS>ATOM
      1 C         137.5383  141.9056  163.4524 C.3     1  UNL1        0.1498
      2 C         138.0681  140.5061  163.5555 C.1     1  UNL1       -0.0730
      3 C         138.5979  139.1065  163.6586 C.1     1  UNL1       -0.0893
      4 C         139.1277  137.7070  163.7618 C.3     1  UNL1        0.0808
      5 C         140.2474  137.3969  164.7105 C.3     1  UNL1        0.0403
      6 C         141.5962  138.0215  164.5086 C.ar    1  UNL1       -0.0212
      7 C         142.1640  138.1498  163.1262 C.ar    1  UNL1       -0.0042
      8 C         143.5127  138.7744  162.9243 C.ar    1  UNL1       -0.0003
      9 C         144.2937  139.2707  164.1049 C.ar    1  UNL1       -0.0000
     10 C         143.7258  139.1425  165.4873 C.ar    1  UNL1       -0.0003
     11 C         142.3771  138.5179  165.6892 C.ar    1  UNL1       -0.0042
     12 N         138.4806  143.0488  163.2172 N.3     1  UNL1       -0.2618
     13 C         138.1782  144.4006  163.7928 C.3     1  UNL1        0.0730
     14 C         138.5819  144.7237  165.2008 C.3     1  UNL1        0.0188
     15 C         139.7253  142.8402  162.4066 C.3     1  UNL1        0.0730
     16 C         141.0588  142.7547  163.0882 C.3     1  UNL1        0.0174
     17 C         141.2813  141.7472  164.1770 C.3     1  UNL1        0.0014
     18 C         141.6299  142.2047  165.5623 C.3     1  UNL1        0.0000
     19 C         140.6349  142.0538  166.6746 C.3     1  UNL1        0.0000
     20 C         139.6095  140.0038  167.8976 C.3     1  UNL1        0.0000
     21 C         139.6950  140.8849  166.6867 C.3     1  UNL1        0.0000
@<TRIPOS>BOND
     1    20    21    1
     2    21    19    1
     3    19    18    1
     4    18    17    1
     5    17    16    1
     6    16    15    1
     7    15    12    1
     8    12    13    1
     9    13    14    1
    10    12     1    1
    11     1     2    1
    12     2     3    3
    13     3     4    1
    14     4     5    1
    15     5     6    1
    16     6     7   ar
    17     7     8   ar
    18     8     9   ar
    19     9    10   ar
    20    10    11   ar
    21    11     6   ar
@<TRIPOS>MOLECULE
*****
 21 21 0 0 0
SMALL
GASTEIGER

@<TRIPOS>ATOM
      1 C         139.5534  141.1584  163.5954 C.3     1  UNL1        0.1498
      2 C         140.7026  141.6015  164.4515 C.1     1  UNL1       -0.0730
      3 C         141.8518  142.0446  165.3077 C.1     1  UNL1       -0.0893
      4 C         143.0010  142.4877  166.1639 C.3     1  UNL1        0.0808
      5 C         143.0937  142.0312  167.5897 C.3     1  UNL1        0.0403
      6 C         141.8436  141.7709  168.3767 C.ar    1  UNL1       -0.0212
      7 C         141.2189  140.4073  168.3630 C.ar    1  UNL1       -0.0042
      8 C         139.9688  140.1471  169.1500 C.ar    1  UNL1       -0.0003
      9 C         139.3433  141.2505  169.9507 C.ar    1  UNL1       -0.0000
     10 C         139.9679  142.6141  169.9645 C.ar    1  UNL1       -0.0003
     11 C         141.2181  142.8743  169.1774 C.ar    1  UNL1       -0.0042
     12 N         138.7278  139.9741  164.0026 N.3     1  UNL1       -0.2618
     13 C         138.1700  139.8910  165.3925 C.3     1  UNL1        0.0730
     14 C         138.2790  138.6124  166.1692 C.3     1  UNL1        0.0188
     15 C         138.4599  138.8730  163.0198 C.3     1  UNL1        0.0730
     16 C         139.3398  137.6584  162.9962 C.3     1  UNL1        0.0174
     17 C         140.8222  137.8026  163.1741 C.3     1  UNL1        0.0014
     18 C         141.4738  137.3396  164.4433 C.3     1  UNL1        0.0000
     19 C         141.9356  138.3427  165.4585 C.3     1  UNL1        0.0000
     20 C         144.2628  139.2350  164.7255 C.3     1  UNL1        0.0000
     21 C         143.4011  138.5208  165.7241 C.3     1  UNL1        0.0000
@<TRIPOS>BOND
     1    20    21    1
     2    21    19    1
     3    19    18    1
     4    18    17    1
     5    17    16    1
     6    16    15    1
     7    15    12    1
     8    12    13    1
     9    13    14    1
    10    12     1    1
    11     1     2    1
    12     2     3    3
    13     3     4    1
    14     4     5    1
    15     5     6    1
    16     6     7   ar
    17     7     8   ar
    18     8     9   ar
    19     9    10   ar
    20    10    11   ar
    21    11     6   ar
@<TRIPOS>MOLECULE
*****
 21 21 0 0 0
SMALL
GASTEIGER

@<TRIPOS>ATOM
      1 C         140.6567  143.2541  161.9351 C.3     1  UNL1        0.1498
      2 C         141.0786  141.8515  162.2586 C.1     1  UNL1       -0.0730
      3 C         141.5005  140.4489  162.5822 C.1     1  UNL1       -0.0893
      4 C         141.9225  139.0463  162.9057 C.3     1  UNL1        0.0808
      5 C         141.8957  138.5638  164.3257 C.3     1  UNL1        0.0403
      6 C         140.6249  138.6377  165.1191 C.ar    1  UNL1       -0.0212
      7 C         140.3709  139.8088  166.0212 C.ar    1  UNL1       -0.0042
      8 C         139.1001  139.8827  166.8147 C.ar    1  UNL1       -0.0003
      9 C         138.0832  138.7854  166.7060 C.ar    1  UNL1       -0.0000
     10 C         138.3371  137.6143  165.8038 C.ar    1  UNL1       -0.0003
     11 C         139.6079  137.5404  165.0104 C.ar    1  UNL1       -0.0042
     12 N         140.2526  144.1888  163.0366 N.3     1  UNL1       -0.2618
     13 C         141.2587  144.6174  164.0632 C.3     1  UNL1        0.0730
     14 C         142.6068  145.1130  163.6310 C.3     1  UNL1        0.0188
     15 C         138.8425  144.6947  163.1114 C.3     1  UNL1        0.0730
     16 C         137.8886  144.1118  164.1116 C.3     1  UNL1        0.0174
     17 C         137.9083  142.6393  164.3970 C.3     1  UNL1        0.0014
     18 C         137.2859  141.6791  163.4272 C.3     1  UNL1        0.0000
     19 C         137.8563  140.3012  163.2653 C.3     1  UNL1        0.0000
     20 C         138.1238  138.1943  161.7690 C.3     1  UNL1        0.0000
     21 C         137.9315  139.6757  161.9041 C.3     1  UNL1        0.0000
@<TRIPOS>BOND
     1    20    21    1
     2    21    19    1
     3    19    18    1
     4    18    17    1
     5    17    16    1
     6    16    15    1
     7    15    12    1
     8    12    13    1
     9    13    14    1
    10    12     1    1
    11     1     2    1
    12     2     3    3
    13     3     4    1
    14     4     5    1
    15     5     6    1
    16     6     7   ar
    17     7     8   ar
    18     8     9   ar
    19     9    10   ar
    20    10    11   ar
    21    11     6   ar
@<TRIPOS>MOLECULE
*****
 21 21 0 0 0
SMALL
GASTEIGER

@<TRIPOS>ATOM
      1 C         142.4496  139.9395  169.9159 C.3     1  UNL1        0.1498
      2 C         142.6524  139.4733  168.5047 C.1     1  UNL1       -0.0730
      3 C         142.8552  139.0072  167.0934 C.1     1  UNL1       -0.0893
      4 C         143.0580  138.5411  165.6822 C.3     1  UNL1        0.0808
      5 C         141.8877  138.0629  164.8748 C.3     1  UNL1        0.0403
      6 C         140.6555  138.9111  164.7651 C.ar    1  UNL1       -0.0212
      7 C         140.4855  139.8396  163.5994 C.ar    1  UNL1       -0.0042
      8 C         139.2532  140.6878  163.4896 C.ar    1  UNL1       -0.0003
      9 C         138.1909  140.6075  164.5455 C.ar    1  UNL1       -0.0000
     10 C         138.3609  139.6790  165.7112 C.ar    1  UNL1       -0.0003
     11 C         139.5932  138.8308  165.8210 C.ar    1  UNL1       -0.0042
     12 N         141.2305  140.7365  170.2747 N.3     1  UNL1       -0.2618
     13 C         139.9926  140.0384  170.7546 C.3     1  UNL1        0.0730
     14 C         138.7104  140.1736  169.9880 C.3     1  UNL1        0.0188
     15 C         141.2494  142.2314  170.1535 C.3     1  UNL1        0.0730
     16 C         141.2464  142.8741  168.7981 C.3     1  UNL1        0.0174
     17 C         140.5103  142.2268  167.6627 C.3     1  UNL1        0.0014
     18 C         140.3022  142.9757  166.3799 C.3     1  UNL1        0.0000
     19 C         141.4311  143.1173  165.4023 C.3     1  UNL1        0.0000
     20 C         143.9917  142.7111  165.2354 C.3     1  UNL1        0.0000
     21 C         142.6063  142.1880  165.4741 C.3     1  UNL1        0.0000
@<TRIPOS>BOND
     1    20    21    1
     2    21    19    1
     3    19    18    1
     4    18    17    1
     5    17    16    1
     6    16    15    1
     7    15    12    1
     8    12    13    1
     9    13    14    1
    10    12     1    1
    11     1     2    1
    12     2     3    3
    13     3     4    1
    14     4     5    1
    15     5     6    1
    16     6     7   ar
    17     7     8   ar
    18     8     9   ar
    19     9    10   ar
    20    10    11   ar
    21    11     6   ar
@<TRIPOS>MOLECULE
*****
 21 21 0 0 0
SMALL
GASTEIGER

@<TRIPOS>ATOM
      1 C         137.3130  141.4732  163.1354 C.3     1  UNL1        0.1498
      2 C         138.0113  140.3026  163.7617 C.1     1  UNL1       -0.0730
      3 C         138.7096  139.1321  164.3881 C.1     1  UNL1       -0.0893
      4 C         139.4079  137.9616  165.0144 C.3     1  UNL1        0.0808
      5 C         140.5703  137.3204  164.3162 C.3     1  UNL1        0.0403
      6 C         141.9001  138.0136  164.2822 C.ar    1  UNL1       -0.0212
      7 C         142.5544  138.4441  165.5614 C.ar    1  UNL1       -0.0042
      8 C         143.8842  139.1374  165.5274 C.ar    1  UNL1       -0.0003
      9 C         144.5596  139.4002  164.2141 C.ar    1  UNL1       -0.0000
     10 C         143.9052  138.9697  162.9349 C.ar    1  UNL1       -0.0003
     11 C         142.5755  138.2764  162.9689 C.ar    1  UNL1       -0.0042
     12 N         138.1135  142.5820  162.5190 N.3     1  UNL1       -0.2618
     13 C         138.9954  142.3034  161.3381 C.3     1  UNL1        0.0730
     14 C         138.4651  142.4842  159.9467 C.3     1  UNL1        0.0188
     15 C         138.0319  143.9693  163.0835 C.3     1  UNL1        0.0730
     16 C         138.2055  144.1909  164.5569 C.3     1  UNL1        0.0174
     17 C         139.5488  143.9885  165.1927 C.3     1  UNL1        0.0014
     18 C         139.8570  142.7030  165.9016 C.3     1  UNL1        0.0000
     19 C         141.0593  141.8979  165.5059 C.3     1  UNL1        0.0000
     20 C         142.5285  142.5103  163.4526 C.3     1  UNL1        0.0000
     21 C         141.4020  141.7249  164.0559 C.3     1  UNL1        0.0000
@<TRIPOS>BOND
     1    20    21    1
     2    21    19    1
     3    19    18    1
     4    18    17    1
     5    17    16    1
     6    16    15    1
     7    15    12    1
     8    12    13    1
     9    13    14    1
    10    12     1    1
    11     1     2    1
    12     2     3    3
    13     3     4    1
    14     4     5    1
    15     5     6    1
    16     6     7   ar
    17     7     8   ar
    18     8     9   ar
    19     9    10   ar
    20    10    11   ar
    21    11     6   ar
@<TRIPOS>MOLECULE
*****
 21 21 0 0 0
SMALL
GASTEIGER

@<TRIPOS>ATOM
      1 C         140.7532  137.6462  163.3784 C.3     1  UNL1        0.1498
      2 C         142.0658  138.2847  163.7239 C.1     1  UNL1       -0.0730
      3 C         143.3784  138.9231  164.0694 C.1     1  UNL1       -0.0893
      4 C         144.6911  139.5615  164.4149 C.3     1  UNL1        0.0808
      5 C         145.2526  140.6428  163.5400 C.3     1  UNL1        0.0403
      6 C         144.7380  142.0467  163.6590 C.ar    1  UNL1       -0.0212
      7 C         144.2330  142.7660  162.4435 C.ar    1  UNL1       -0.0042
      8 C         143.7185  144.1700  162.5625 C.ar    1  UNL1       -0.0003
      9 C         143.7089  144.8546  163.8971 C.ar    1  UNL1       -0.0000
     10 C         144.2139  144.1353  165.1126 C.ar    1  UNL1       -0.0003
     11 C         144.7284  142.7314  164.9936 C.ar    1  UNL1       -0.0042
     12 N         139.4717  138.2552  163.8654 N.3     1  UNL1       -0.2618
     13 C         138.5703  138.9736  162.9055 C.3     1  UNL1        0.0730
     14 C         137.9204  138.2223  161.7816 C.3     1  UNL1        0.0188
     15 C         139.0917  138.1458  165.3123 C.3     1  UNL1        0.0730
     16 C         138.5515  139.3420  166.0385 C.3     1  UNL1        0.0174
     17 C         139.3959  140.0432  167.0609 C.3     1  UNL1        0.0014
     18 C         140.8899  139.9197  167.0119 C.3     1  UNL1        0.0000
     19 C         141.7125  141.0083  166.3886 C.3     1  UNL1        0.0000
     20 C         140.9655  141.8339  164.0413 C.3     1  UNL1        0.0000
     21 C         141.0556  142.0430  165.5239 C.3     1  UNL1        0.0000
@<TRIPOS>BOND
     1    20    21    1
     2    21    19    1
     3    19    18    1
     4    18    17    1
     5    17    16    1
     6    16    15    1
     7    15    12    1
     8    12    13    1
     9    13    14    1
    10    12     1    1
    11     1     2    1
    12     2     3    3
    13     3     4    1
    14     4     5    1
    15     5     6    1
    16     6     7   ar
    17     7     8   ar
    18     8     9   ar
    19     9    10   ar
    20    10    11   ar
    21    11     6   ar
@<TRIPOS>MOLECULE
*****
 21 21 0 0 0
SMALL
GASTEIGER

@<TRIPOS>ATOM
      1 C         141.2887  137.6264  164.7123 C.3     1  UNL1        0.1498
      2 C         142.5763  138.3858  164.5883 C.1     1  UNL1       -0.0730
      3 C         143.8639  139.1452  164.4643 C.1     1  UNL1       -0.0893
      4 C         145.1515  139.9046  164.3404 C.3     1  UNL1        0.0808
      5 C         145.3056  140.9513  163.2770 C.3     1  UNL1        0.0403
      6 C         144.7784  142.3367  163.5064 C.ar    1  UNL1       -0.0212
      7 C         144.4323  143.2106  162.3374 C.ar    1  UNL1       -0.0042
      8 C         143.9052  144.5960  162.5668 C.ar    1  UNL1       -0.0003
      9 C         143.7241  145.1077  163.9652 C.ar    1  UNL1       -0.0000
     10 C         144.0702  144.2338  165.1341 C.ar    1  UNL1       -0.0003
     11 C         144.5974  142.8483  164.9048 C.ar    1  UNL1       -0.0042
     12 N         140.0768  138.0756  163.9510 N.3     1  UNL1       -0.2618
     13 C         138.7745  138.2797  164.6669 C.3     1  UNL1        0.0730
     14 C         138.7510  138.9681  165.9994 C.3     1  UNL1        0.0188
     15 C         140.1671  138.3208  162.4740 C.3     1  UNL1        0.0730
     16 C         140.0648  139.7181  161.9380 C.3     1  UNL1        0.0174
     17 C         141.2437  140.6417  162.0220 C.3     1  UNL1        0.0014
     18 C         141.2102  141.8176  162.9526 C.3     1  UNL1        0.0000
     19 C         140.9075  141.6143  164.4077 C.3     1  UNL1        0.0000
     20 C         140.1719  144.0868  164.7158 C.3     1  UNL1        0.0000
     21 C         140.6739  142.7987  165.2978 C.3     1  UNL1        0.0000
@<TRIPOS>BOND
     1    20    21    1
     2    21    19    1
     3    19    18    1
     4    18    17    1
     5    17    16    1
     6    16    15    1
     7    15    12    1
     8    12    13    1
     9    13    14    1
    10    12     1    1
    11     1     2    1
    12     2     3    3
    13     3     4    1
    14     4     5    1
    15     5     6    1
    16     6     7   ar
    17     7     8   ar
    18     8     9   ar
    19     9    10   ar
    20    10    11   ar
    21    11     6   ar
