@<TRIPOS>MOLECULE
*****
 30 33 0 0 0
SMALL
GASTEIGER

@<TRIPOS>ATOM
      1 C         139.7498  139.0162  165.0440 C.ar    1  UNL1        0.0040
      2 C         140.6729  137.9110  164.6241 C.ar    1  UNL1        0.0208
      3 C         140.5248  137.2840  163.2695 C.ar    1  UNL1        0.1003
      4 N         139.4535  137.7623  162.3348 N.ar    1  UNL1       -0.2294
      5 C         138.5304  138.8675  162.7547 C.ar    1  UNL1        0.1288
      6 C         138.6786  139.4945  164.1093 C.ar    1  UNL1        0.0341
      7 C         137.6720  138.5369  167.1542 C.3     1  UNL1        0.0310
      8 C         138.8591  139.4035  167.4537 C.ar    1  UNL1       -0.0212
      9 C         139.0073  140.0304  168.8083 C.ar    1  UNL1        0.0060
     10 C         140.1944  140.8971  169.1078 C.ar    1  UNL1        0.0681
     11 C         141.2333  141.1368  168.0528 C.ar    1  UNL1        0.0103
     12 C         141.0851  140.5098  166.6982 C.ar    1  UNL1        0.0004
     13 C         139.8980  139.6432  166.3987 C.ar    1  UNL1       -0.0038
     14 C         140.3426  141.5240  170.4625 C.1     1  UNL1        0.1004
     15 N         140.4907  142.1509  171.8171 N.1     1  UNL1       -0.1908
     16 N         137.4592  139.3458  161.8200 N.pl3   1  UNL1       -0.3132
     17 H         136.5371  139.0148  161.9174 H       1  UNL1        0.1485
     18 C         137.7928  140.3284  160.7369 C.3     1  UNL1        0.1342
     19 C         138.4842  141.6151  161.0784 C.ar    1  UNL1        0.0729
     20 C         139.8764  141.7511  161.6199 C.ar    1  UNL1        0.0381
     21 C         140.1575  143.2116  161.8146 C.ar    1  UNL1        0.1194
     22 N         138.9389  143.9782  161.3933 N.ar    1  UNL1       -0.1714
     23 N         137.9048  142.9915  160.9384 N.ar    1  UNL1       -0.2781
     24 H         137.0040  143.2091  160.6062 H       1  UNL1        0.1886
     25 C         141.4331  143.8018  162.3384 C.ar    1  UNL1        0.1006
     26 C         141.3883  144.8797  163.3807 C.ar    1  UNL1        0.0207
     27 C         142.6638  145.4699  163.9045 C.ar    1  UNL1        0.0032
     28 C         143.9843  144.9823  163.3862 C.ar    1  UNL1        0.0207
     29 C         144.0291  143.9045  162.3439 C.ar    1  UNL1        0.0989
     30 N         142.7535  143.3142  161.8201 N.ar    1  UNL1       -0.2423
@<TRIPOS>BOND
     1     7     8    1
     2     8     9   ar
     3     9    10   ar
     4    10    14    1
     5    14    15    3
     6    10    11   ar
     7    11    12   ar
     8    12    13   ar
     9    13     1    1
    10     1     2   ar
    11     2     3   ar
    12     3     4   ar
    13     4     5   ar
    14     5    16    1
    15    16    18    1
    16    18    19    1
    17    19    20   ar
    18    20    21   ar
    19    21    25    1
    20    25    26   ar
    21    26    27   ar
    22    27    28   ar
    23    28    29   ar
    24    29    30   ar
    25    21    22   ar
    26    22    23   ar
    27     5     6   ar
    28    13     8   ar
    29     6     1   ar
    30    23    19   ar
    31    30    25   ar
    32    16    17    1
    33    23    24    1
@<TRIPOS>MOLECULE
*****
 30 33 0 0 0
SMALL
GASTEIGER

@<TRIPOS>ATOM
      1 C         143.0919  143.0384  164.6830 C.ar    1  UNL1        0.0040
      2 C         144.3586  143.0723  163.8802 C.ar    1  UNL1        0.0208
      3 C         144.4864  144.0147  162.7203 C.ar    1  UNL1        0.1003
      4 N         143.3475  144.9232  162.3630 N.ar    1  UNL1       -0.2294
      5 C         142.0808  144.8893  163.1657 C.ar    1  UNL1        0.1288
      6 C         141.9530  143.9469  164.3258 C.ar    1  UNL1        0.0341
      7 C         142.2636  140.1925  164.2194 C.3     1  UNL1        0.0310
      8 C         142.5500  140.6731  165.6112 C.ar    1  UNL1       -0.0212
      9 C         142.4222  139.7307  166.7712 C.ar    1  UNL1        0.0060
     10 C         142.7086  140.2113  168.1630 C.ar    1  UNL1        0.0681
     11 C         143.1227  141.6342  168.3948 C.ar    1  UNL1        0.0103
     12 C         143.2505  142.5765  167.2348 C.ar    1  UNL1        0.0004
     13 C         142.9641  142.0960  165.8430 C.ar    1  UNL1       -0.0038
     14 C         142.5808  139.2688  169.3230 C.1     1  UNL1        0.1004
     15 N         142.4530  138.3264  170.4829 N.1     1  UNL1       -0.1908
     16 N         140.9420  145.7978  162.8085 N.pl3   1  UNL1       -0.3132
     17 H         140.9384  146.7303  163.1243 H       1  UNL1        0.1485
     18 C         139.8085  145.2855  161.9703 C.3     1  UNL1        0.1342
     19 C         139.0294  144.0836  162.4161 C.ar    1  UNL1        0.0729
     20 C         139.6085  142.7896  162.9062 C.ar    1  UNL1        0.0381
     21 C         138.4716  141.8710  163.2431 C.ar    1  UNL1        0.1194
     22 N         137.1898  142.5974  162.9612 N.ar    1  UNL1       -0.1714
     23 N         137.5345  143.9648  162.4501 N.ar    1  UNL1       -0.2781
     24 H         136.8924  144.6619  162.1838 H       1  UNL1        0.1886
     25 C         138.5948  140.4718  163.7694 C.ar    1  UNL1        0.1006
     26 C         138.4819  140.2120  165.2424 C.ar    1  UNL1        0.0207
     27 C         138.6051  138.8128  165.7688 C.ar    1  UNL1        0.0032
     28 C         138.8412  137.6735  164.8221 C.ar    1  UNL1        0.0207
     29 C         138.9541  137.9333  163.3491 C.ar    1  UNL1        0.0989
     30 N         138.8309  139.3325  162.8227 N.ar    1  UNL1       -0.2423
@<TRIPOS>BOND
     1     7     8    1
     2     8     9   ar
     3     9    10   ar
     4    10    14    1
     5    14    15    3
     6    10    11   ar
     7    11    12   ar
     8    12    13   ar
     9    13     1    1
    10     1     2   ar
    11     2     3   ar
    12     3     4   ar
    13     4     5   ar
    14     5    16    1
    15    16    18    1
    16    18    19    1
    17    19    20   ar
    18    20    21   ar
    19    21    25    1
    20    25    26   ar
    21    26    27   ar
    22    27    28   ar
    23    28    29   ar
    24    29    30   ar
    25    21    22   ar
    26    22    23   ar
    27     5     6   ar
    28    13     8   ar
    29     6     1   ar
    30    23    19   ar
    31    30    25   ar
    32    16    17    1
    33    23    24    1
@<TRIPOS>MOLECULE
*****
 30 33 0 0 0
SMALL
GASTEIGER

@<TRIPOS>ATOM
      1 C         142.1898  139.1787  165.2357 C.ar    1  UNL1        0.0040
      2 C         141.4194  138.0018  164.7146 C.ar    1  UNL1        0.0208
      3 C         141.7225  137.4504  163.3530 C.ar    1  UNL1        0.1003
      4 N         142.7960  138.0758  162.5124 N.ar    1  UNL1       -0.2294
      5 C         143.5664  139.2526  163.0335 C.ar    1  UNL1        0.1288
      6 C         143.2633  139.8041  164.3952 C.ar    1  UNL1        0.0341
      7 C         139.8468  141.0114  165.6245 C.3     1  UNL1        0.0310
      8 C         140.7152  140.6464  166.7918 C.ar    1  UNL1       -0.0212
      9 C         140.4121  141.1978  168.1534 C.ar    1  UNL1        0.0060
     10 C         141.2806  140.8328  169.3207 C.ar    1  UNL1        0.0681
     11 C         142.4521  139.9165  169.1264 C.ar    1  UNL1        0.0103
     12 C         142.7551  139.3651  167.7647 C.ar    1  UNL1        0.0004
     13 C         141.8867  139.7301  166.5974 C.ar    1  UNL1       -0.0038
     14 C         140.9775  141.3843  170.6824 C.1     1  UNL1        0.1004
     15 N         140.6744  141.9357  172.0440 N.1     1  UNL1       -0.1908
     16 N         144.6399  139.8781  162.1930 N.pl3   1  UNL1       -0.3132
     17 H         145.5785  139.6055  162.3106 H       1  UNL1        0.1485
     18 C         144.2831  140.9187  161.1734 C.3     1  UNL1        0.1342
     19 C         143.4111  142.0773  161.5576 C.ar    1  UNL1        0.0729
     20 C         142.0953  141.9914  162.2726 C.ar    1  UNL1        0.0381
     21 C         141.5728  143.3861  162.4511 C.ar    1  UNL1        0.1194
     22 N         142.5658  144.3339  161.8464 N.ar    1  UNL1       -0.1714
     23 N         143.7019  143.5250  161.2941 N.ar    1  UNL1       -0.2781
     24 H         144.4985  143.8817  160.8388 H       1  UNL1        0.1886
     25 C         140.2838  143.7662  163.1173 C.ar    1  UNL1        0.1006
     26 C         140.3020  144.4325  164.4611 C.ar    1  UNL1        0.0207
     27 C         139.0130  144.8126  165.1273 C.ar    1  UNL1        0.0032
     28 C         137.7057  144.5264  164.4498 C.ar    1  UNL1        0.0207
     29 C         137.6875  143.8600  163.1060 C.ar    1  UNL1        0.0989
     30 N         138.9765  143.4799  162.4398 N.ar    1  UNL1       -0.2423
@<TRIPOS>BOND
     1     7     8    1
     2     8     9   ar
     3     9    10   ar
     4    10    14    1
     5    14    15    3
     6    10    11   ar
     7    11    12   ar
     8    12    13   ar
     9    13     1    1
    10     1     2   ar
    11     2     3   ar
    12     3     4   ar
    13     4     5   ar
    14     5    16    1
    15    16    18    1
    16    18    19    1
    17    19    20   ar
    18    20    21   ar
    19    21    25    1
    20    25    26   ar
    21    26    27   ar
    22    27    28   ar
    23    28    29   ar
    24    29    30   ar
    25    21    22   ar
    26    22    23   ar
    27     5     6   ar
    28    13     8   ar
    29     6     1   ar
    30    23    19   ar
    31    30    25   ar
    32    16    17    1
    33    23    24    1
@<TRIPOS>MOLECULE
*****
 30 33 0 0 0
SMALL
GASTEIGER

@<TRIPOS>ATOM
      1 C         143.2291  142.8178  164.8295 C.ar    1  UNL1        0.0040
      2 C         143.5662  144.1715  164.2782 C.ar    1  UNL1        0.0208
      3 C         144.1263  144.2987  162.8925 C.ar    1  UNL1        0.1003
      4 N         144.3492  143.0722  162.0581 N.ar    1  UNL1       -0.2294
      5 C         144.0120  141.7186  162.6094 C.ar    1  UNL1        0.1288
      6 C         143.4519  141.5914  163.9951 C.ar    1  UNL1        0.0341
      7 C         140.2696  143.0236  165.2760 C.3     1  UNL1        0.0310
      8 C         141.1893  142.7935  166.4385 C.ar    1  UNL1       -0.0212
      9 C         140.6293  142.6663  167.8241 C.ar    1  UNL1        0.0060
     10 C         141.5490  142.4362  168.9866 C.ar    1  UNL1        0.0681
     11 C         143.0287  142.3333  168.7633 C.ar    1  UNL1        0.0103
     12 C         143.5887  142.4605  167.3776 C.ar    1  UNL1        0.0004
     13 C         142.6690  142.6906  166.2152 C.ar    1  UNL1       -0.0038
     14 C         140.9889  142.3090  170.3723 C.1     1  UNL1        0.1004
     15 N         140.4288  142.1818  171.7580 N.1     1  UNL1       -0.1908
     16 N         144.2349  140.4922  161.7750 N.pl3   1  UNL1       -0.3132
     17 H         145.1508  140.1814  161.5916 H       1  UNL1        0.1485
     18 C         143.0622  139.7394  161.2201 C.3     1  UNL1        0.1342
     19 C         142.2052  138.9095  162.1296 C.ar    1  UNL1        0.0729
     20 C         141.3164  139.4292  163.2205 C.ar    1  UNL1        0.0381
     21 C         140.6485  138.2553  163.8729 C.ar    1  UNL1        0.1194
     22 N         141.1245  137.0100  163.1853 N.ar    1  UNL1       -0.1714
     23 N         142.0866  137.4144  162.1078 N.ar    1  UNL1       -0.2781
     24 H         142.5575  136.8054  161.4942 H       1  UNL1        0.1886
     25 C         139.6754  138.3159  165.0129 C.ar    1  UNL1        0.1006
     26 C         138.6742  137.2154  165.2036 C.ar    1  UNL1        0.0207
     27 C         137.7011  137.2760  166.3436 C.ar    1  UNL1        0.0032
     28 C         137.7293  138.4371  167.2927 C.ar    1  UNL1        0.0207
     29 C         138.7305  139.5377  167.1019 C.ar    1  UNL1        0.0989
     30 N         139.7036  139.4771  165.9620 N.ar    1  UNL1       -0.2423
@<TRIPOS>BOND
     1     7     8    1
     2     8     9   ar
     3     9    10   ar
     4    10    14    1
     5    14    15    3
     6    10    11   ar
     7    11    12   ar
     8    12    13   ar
     9    13     1    1
    10     1     2   ar
    11     2     3   ar
    12     3     4   ar
    13     4     5   ar
    14     5    16    1
    15    16    18    1
    16    18    19    1
    17    19    20   ar
    18    20    21   ar
    19    21    25    1
    20    25    26   ar
    21    26    27   ar
    22    27    28   ar
    23    28    29   ar
    24    29    30   ar
    25    21    22   ar
    26    22    23   ar
    27     5     6   ar
    28    13     8   ar
    29     6     1   ar
    30    23    19   ar
    31    30    25   ar
    32    16    17    1
    33    23    24    1
@<TRIPOS>MOLECULE
*****
 30 33 0 0 0
SMALL
GASTEIGER

@<TRIPOS>ATOM
      1 C         139.1895  140.0361  165.0304 C.ar    1  UNL1        0.0040
      2 C         138.0518  140.6506  164.2702 C.ar    1  UNL1        0.0208
      3 C         137.7640  140.2106  162.8654 C.ar    1  UNL1        0.1003
      4 N         138.6140  139.1561  162.2207 N.ar    1  UNL1       -0.2294
      5 C         139.7517  138.5415  162.9809 C.ar    1  UNL1        0.1288
      6 C         140.0395  138.9816  164.3858 C.ar    1  UNL1        0.0341
      7 C         140.7112  142.5737  165.5256 C.3     1  UNL1        0.0310
      8 C         140.2381  141.7449  166.6829 C.ar    1  UNL1       -0.0212
      9 C         140.5258  142.1849  168.0877 C.ar    1  UNL1        0.0060
     10 C         140.0528  141.3561  169.2450 C.ar    1  UNL1        0.0681
     11 C         139.2920  140.0873  168.9974 C.ar    1  UNL1        0.0103
     12 C         139.0042  139.6473  167.5926 C.ar    1  UNL1        0.0004
     13 C         139.4773  140.4761  166.4353 C.ar    1  UNL1       -0.0038
     14 C         140.3405  141.7961  170.6498 C.1     1  UNL1        0.1004
     15 N         140.6283  142.2361  172.0547 N.1     1  UNL1       -0.1908
     16 N         140.6017  137.4871  162.3363 N.pl3   1  UNL1       -0.3132
     17 H         140.3653  136.5364  162.4344 H       1  UNL1        0.1485
     18 C         141.8117  137.8810  161.5422 C.3     1  UNL1        0.1342
     19 C         142.7656  138.9030  162.0861 C.ar    1  UNL1        0.0729
     20 C         142.4196  140.3059  162.4888 C.ar    1  UNL1        0.0381
     21 C         143.6731  140.9714  162.9743 C.ar    1  UNL1        0.1194
     22 N         144.7939  139.9797  162.8717 N.ar    1  UNL1       -0.1714
     23 N         144.2331  138.7014  162.3228 N.ar    1  UNL1       -0.2781
     24 H         144.7392  137.8752  162.1485 H       1  UNL1        0.1886
     25 C         143.7860  142.3810  163.4746 C.ar    1  UNL1        0.1006
     26 C         144.4119  142.6550  164.8099 C.ar    1  UNL1        0.0207
     27 C         144.5248  144.0646  165.3102 C.ar    1  UNL1        0.0032
     28 C         144.0118  145.2001  164.4751 C.ar    1  UNL1        0.0207
     29 C         143.3859  144.9261  163.1398 C.ar    1  UNL1        0.0989
     30 N         143.2730  143.5165  162.6395 N.ar    1  UNL1       -0.2423
@<TRIPOS>BOND
     1     7     8    1
     2     8     9   ar
     3     9    10   ar
     4    10    14    1
     5    14    15    3
     6    10    11   ar
     7    11    12   ar
     8    12    13   ar
     9    13     1    1
    10     1     2   ar
    11     2     3   ar
    12     3     4   ar
    13     4     5   ar
    14     5    16    1
    15    16    18    1
    16    18    19    1
    17    19    20   ar
    18    20    21   ar
    19    21    25    1
    20    25    26   ar
    21    26    27   ar
    22    27    28   ar
    23    28    29   ar
    24    29    30   ar
    25    21    22   ar
    26    22    23   ar
    27     5     6   ar
    28    13     8   ar
    29     6     1   ar
    30    23    19   ar
    31    30    25   ar
    32    16    17    1
    33    23    24    1
@<TRIPOS>MOLECULE
*****
 30 33 0 0 0
SMALL
GASTEIGER

@<TRIPOS>ATOM
      1 C         141.6955  139.1747  164.5666 C.ar    1  UNL1        0.0040
      2 C         142.8267  138.7760  163.6658 C.ar    1  UNL1        0.0208
      3 C         142.5593  137.9334  162.4540 C.ar    1  UNL1        0.1003
      4 N         141.1607  137.4896  162.1429 N.ar    1  UNL1       -0.2294
      5 C         140.0294  137.8882  163.0436 C.ar    1  UNL1        0.1288
      6 C         140.2969  138.7308  164.2555 C.ar    1  UNL1        0.0341
      7 C         141.4306  142.1587  164.4071 C.3     1  UNL1        0.0310
      8 C         141.8305  141.5092  165.6987 C.ar    1  UNL1       -0.0212
      9 C         142.0980  142.3517  166.9106 C.ar    1  UNL1        0.0060
     10 C         142.4979  141.7022  168.2022 C.ar    1  UNL1        0.0681
     11 C         142.6304  140.2102  168.2819 C.ar    1  UNL1        0.0103
     12 C         142.3629  139.3677  167.0701 C.ar    1  UNL1        0.0004
     13 C         141.9630  140.0172  165.7785 C.ar    1  UNL1       -0.0038
     14 C         142.7654  142.5448  169.4141 C.1     1  UNL1        0.1004
     15 N         143.0328  143.3873  170.6259 N.1     1  UNL1       -0.1908
     16 N         138.6308  137.4444  162.7326 N.pl3   1  UNL1       -0.3132
     17 H         138.2929  136.5929  163.0931 H       1  UNL1        0.1485
     18 C         137.7470  138.2980  161.8722 C.3     1  UNL1        0.1342
     19 C         137.8379  139.7930  161.9545 C.ar    1  UNL1        0.0729
     20 C         138.7574  140.6658  161.1527 C.ar    1  UNL1        0.0381
     21 C         138.5131  142.0899  161.5555 C.ar    1  UNL1        0.1194
     22 N         137.4426  142.0972  162.6064 N.ar    1  UNL1       -0.1714
     23 N         137.0254  140.6777  162.8529 N.ar    1  UNL1       -0.2781
     24 H         136.3388  140.3790  163.4921 H       1  UNL1        0.1886
     25 C         139.2158  143.2950  161.0044 C.ar    1  UNL1        0.1006
     26 C         139.9201  143.2134  159.6825 C.ar    1  UNL1        0.0207
     27 C         140.6228  144.4185  159.1314 C.ar    1  UNL1        0.0032
     28 C         140.6213  145.7053  159.9022 C.ar    1  UNL1        0.0207
     29 C         139.9171  145.7870  161.2241 C.ar    1  UNL1        0.0989
     30 N         139.2143  144.5818  161.7752 N.ar    1  UNL1       -0.2423
@<TRIPOS>BOND
     1     7     8    1
     2     8     9   ar
     3     9    10   ar
     4    10    14    1
     5    14    15    3
     6    10    11   ar
     7    11    12   ar
     8    12    13   ar
     9    13     1    1
    10     1     2   ar
    11     2     3   ar
    12     3     4   ar
    13     4     5   ar
    14     5    16    1
    15    16    18    1
    16    18    19    1
    17    19    20   ar
    18    20    21   ar
    19    21    25    1
    20    25    26   ar
    21    26    27   ar
    22    27    28   ar
    23    28    29   ar
    24    29    30   ar
    25    21    22   ar
    26    22    23   ar
    27     5     6   ar
    28    13     8   ar
    29     6     1   ar
    30    23    19   ar
    31    30    25   ar
    32    16    17    1
    33    23    24    1
@<TRIPOS>MOLECULE
*****
 30 33 0 0 0
SMALL
GASTEIGER

@<TRIPOS>ATOM
      1 C         139.6671  139.0616  164.9717 C.ar    1  UNL1        0.0040
      2 C         140.6189  137.9928  164.5226 C.ar    1  UNL1        0.0208
      3 C         140.4651  137.3737  163.1650 C.ar    1  UNL1        0.1003
      4 N         139.3594  137.8234  162.2565 N.ar    1  UNL1       -0.2294
      5 C         138.4077  138.8923  162.7056 C.ar    1  UNL1        0.1288
      6 C         138.5615  139.5114  164.0632 C.ar    1  UNL1        0.0341
      7 C         137.6532  138.4866  167.1196 C.3     1  UNL1        0.0310
      8 C         138.8140  139.3932  167.4032 C.ar    1  UNL1       -0.0212
      9 C         138.9679  140.0123  168.7608 C.ar    1  UNL1        0.0060
     10 C         140.1288  140.9190  169.0444 C.ar    1  UNL1        0.0681
     11 C         141.1357  141.2065  167.9705 C.ar    1  UNL1        0.0103
     12 C         140.9818  140.5874  166.6130 C.ar    1  UNL1        0.0004
     13 C         139.8210  139.6808  166.3293 C.ar    1  UNL1       -0.0038
     14 C         140.2826  141.5381  170.4021 C.1     1  UNL1        0.1004
     15 N         140.4364  142.1572  171.7596 N.1     1  UNL1       -0.1908
     16 N         137.3021  139.3420  161.7971 N.pl3   1  UNL1       -0.3132
     17 H         136.3650  139.2745  162.0913 H       1  UNL1        0.1485
     18 C         137.6242  139.8946  160.4404 C.3     1  UNL1        0.1342
     19 C         138.2471  141.2532  160.3124 C.ar    1  UNL1        0.0729
     20 C         139.1169  141.7216  159.1836 C.ar    1  UNL1        0.0381
     21 C         139.5168  143.1398  159.4642 C.ar    1  UNL1        0.1194
     22 N         138.8942  143.5479  160.7665 N.ar    1  UNL1       -0.1714
     23 N         138.1094  142.3819  161.2906 N.ar    1  UNL1       -0.2781
     24 H         137.5945  142.3611  162.1295 H       1  UNL1        0.1886
     25 C         140.3866  143.9990  158.5953 C.ar    1  UNL1        0.1006
     26 C         141.7988  143.5850  158.3048 C.ar    1  UNL1        0.0207
     27 C         142.6686  144.4442  157.4358 C.ar    1  UNL1        0.0032
     28 C         142.1262  145.7174  156.8573 C.ar    1  UNL1        0.0207
     29 C         140.7141  146.1315  157.1478 C.ar    1  UNL1        0.0989
     30 N         139.8443  145.2722  158.0168 N.ar    1  UNL1       -0.2423
@<TRIPOS>BOND
     1     7     8    1
     2     8     9   ar
     3     9    10   ar
     4    10    14    1
     5    14    15    3
     6    10    11   ar
     7    11    12   ar
     8    12    13   ar
     9    13     1    1
    10     1     2   ar
    11     2     3   ar
    12     3     4   ar
    13     4     5   ar
    14     5    16    1
    15    16    18    1
    16    18    19    1
    17    19    20   ar
    18    20    21   ar
    19    21    25    1
    20    25    26   ar
    21    26    27   ar
    22    27    28   ar
    23    28    29   ar
    24    29    30   ar
    25    21    22   ar
    26    22    23   ar
    27     5     6   ar
    28    13     8   ar
    29     6     1   ar
    30    23    19   ar
    31    30    25   ar
    32    16    17    1
    33    23    24    1
@<TRIPOS>MOLECULE
*****
 30 33 0 0 0
SMALL
GASTEIGER

@<TRIPOS>ATOM
      1 C         138.9487  141.4885  165.0157 C.ar    1  UNL1        0.0040
      2 C         138.4237  142.8885  164.8956 C.ar    1  UNL1        0.0208
      3 C         137.5335  143.2597  163.7469 C.ar    1  UNL1        0.1003
      4 N         137.1681  142.2310  162.7182 N.ar    1  UNL1       -0.2294
      5 C         137.6931  140.8310  162.8383 C.ar    1  UNL1        0.1288
      6 C         138.5834  140.4597  163.9871 C.ar    1  UNL1        0.0341
      7 C         141.8193  142.3601  165.0314 C.3     1  UNL1        0.0310
      8 C         141.2742  141.5530  166.1723 C.ar    1  UNL1       -0.0212
      9 C         142.1644  141.1818  167.3211 C.ar    1  UNL1        0.0060
     10 C         141.6194  140.3748  168.4620 C.ar    1  UNL1        0.0681
     11 C         140.1841  139.9390  168.4542 C.ar    1  UNL1        0.0103
     12 C         139.2939  140.3103  167.3054 C.ar    1  UNL1        0.0004
     13 C         139.8390  141.1173  166.1645 C.ar    1  UNL1       -0.0038
     14 C         142.5097  140.0036  169.6108 C.1     1  UNL1        0.1004
     15 N         143.4000  139.6324  170.7595 N.1     1  UNL1       -0.1908
     16 N         137.3277  139.8022  161.8096 N.pl3   1  UNL1       -0.3132
     17 H         136.3881  139.5309  161.6968 H       1  UNL1        0.1485
     18 C         138.3941  139.1867  160.9529 C.3     1  UNL1        0.1342
     19 C         139.7828  139.0134  161.4928 C.ar    1  UNL1        0.0729
     20 C         140.7874  140.1061  161.7093 C.ar    1  UNL1        0.0381
     21 C         142.0362  139.4850  162.2613 C.ar    1  UNL1        0.1194
     22 N         141.8034  138.0084  162.3859 N.ar    1  UNL1       -0.1714
     23 N         140.4108  137.7169  161.9109 N.ar    1  UNL1       -0.2781
     24 H         139.9839  136.8304  161.8792 H       1  UNL1        0.1886
     25 C         143.2965  140.2127  162.6248 C.ar    1  UNL1        0.1006
     26 C         144.1503  139.7160  163.7536 C.ar    1  UNL1        0.0207
     27 C         145.4106  140.4437  164.1171 C.ar    1  UNL1        0.0032
     28 C         145.8170  141.6680  163.3518 C.ar    1  UNL1        0.0207
     29 C         144.9632  142.1647  162.2229 C.ar    1  UNL1        0.0989
     30 N         143.7029  141.4370  161.8594 N.ar    1  UNL1       -0.2423
@<TRIPOS>BOND
     1     7     8    1
     2     8     9   ar
     3     9    10   ar
     4    10    14    1
     5    14    15    3
     6    10    11   ar
     7    11    12   ar
     8    12    13   ar
     9    13     1    1
    10     1     2   ar
    11     2     3   ar
    12     3     4   ar
    13     4     5   ar
    14     5    16    1
    15    16    18    1
    16    18    19    1
    17    19    20   ar
    18    20    21   ar
    19    21    25    1
    20    25    26   ar
    21    26    27   ar
    22    27    28   ar
    23    28    29   ar
    24    29    30   ar
    25    21    22   ar
    26    22    23   ar
    27     5     6   ar
    28    13     8   ar
    29     6     1   ar
    30    23    19   ar
    31    30    25   ar
    32    16    17    1
    33    23    24    1
@<TRIPOS>MOLECULE
*****
 30 33 0 0 0
SMALL
GASTEIGER

@<TRIPOS>ATOM
      1 C         143.0165  139.9233  165.2254 C.ar    1  UNL1        0.0040
      2 C         144.3085  140.4636  164.6881 C.ar    1  UNL1        0.0208
      3 C         144.8041  140.0228  163.3427 C.ar    1  UNL1        0.1003
      4 N         144.0077  139.0416  162.5347 N.ar    1  UNL1       -0.2294
      5 C         142.7157  138.5012  163.0720 C.ar    1  UNL1        0.1288
      6 C         142.2201  138.9421  164.4174 C.ar    1  UNL1        0.0341
      7 C         141.6058  142.5549  165.5159 C.3     1  UNL1        0.0310
      8 C         141.8156  141.6800  166.7161 C.ar    1  UNL1       -0.0212
      9 C         141.3201  142.1208  168.0615 C.ar    1  UNL1        0.0060
     10 C         141.5299  141.2458  169.2616 C.ar    1  UNL1        0.0681
     11 C         142.2352  139.9300  169.1164 C.ar    1  UNL1        0.0103
     12 C         142.7307  139.4892  167.7710 C.ar    1  UNL1        0.0004
     13 C         142.5209  140.3641  166.5709 C.ar    1  UNL1       -0.0038
     14 C         141.0343  141.6867  170.6070 C.1     1  UNL1        0.1004
     15 N         140.5388  142.1275  171.9524 N.1     1  UNL1       -0.1908
     16 N         141.9193  137.5200  162.2640 N.pl3   1  UNL1       -0.3132
     17 H         142.0275  136.5535  162.4172 H       1  UNL1        0.1485
     18 C         140.9581  138.0113  161.2226 C.3     1  UNL1        0.1342
     19 C         140.1694  139.2648  161.4615 C.ar    1  UNL1        0.0729
     20 C         140.6951  140.6670  161.3756 C.ar    1  UNL1        0.0381
     21 C         139.5673  141.6049  161.6893 C.ar    1  UNL1        0.1194
     22 N         138.3446  140.7822  161.9691 N.ar    1  UNL1       -0.1714
     23 N         138.7167  139.3360  161.8283 N.ar    1  UNL1       -0.2781
     24 H         138.1135  138.5683  161.9545 H       1  UNL1        0.1886
     25 C         139.6480  143.1024  161.7182 C.ar    1  UNL1        0.1006
     26 C         139.1764  143.8558  162.9265 C.ar    1  UNL1        0.0207
     27 C         139.2571  145.3533  162.9554 C.ar    1  UNL1        0.0032
     28 C         139.8094  146.0975  161.7759 C.ar    1  UNL1        0.0207
     29 C         140.2810  145.3441  160.5676 C.ar    1  UNL1        0.0989
     30 N         140.2003  143.8466  160.5387 N.ar    1  UNL1       -0.2423
@<TRIPOS>BOND
     1     7     8    1
     2     8     9   ar
     3     9    10   ar
     4    10    14    1
     5    14    15    3
     6    10    11   ar
     7    11    12   ar
     8    12    13   ar
     9    13     1    1
    10     1     2   ar
    11     2     3   ar
    12     3     4   ar
    13     4     5   ar
    14     5    16    1
    15    16    18    1
    16    18    19    1
    17    19    20   ar
    18    20    21   ar
    19    21    25    1
    20    25    26   ar
    21    26    27   ar
    22    27    28   ar
    23    28    29   ar
    24    29    30   ar
    25    21    22   ar
    26    22    23   ar
    27     5     6   ar
    28    13     8   ar
    29     6     1   ar
    30    23    19   ar
    31    30    25   ar
    32    16    17    1
    33    23    24    1
