@<TRIPOS>MOLECULE
*****
 44 48 0 0 0
SMALL
GASTEIGER

@<TRIPOS>ATOM
      1 C         141.2919  140.9227  162.5202 C.3     1  UNL1        0.0807
      2 C         141.3610  140.6576  163.9951 C.ar    1  UNL1        0.0375
      3 C         140.9997  141.7393  164.9693 C.ar    1  UNL1        0.0023
      4 C         141.0689  141.4742  166.4441 C.ar    1  UNL1        0.0181
      5 C         140.7076  142.5560  167.4183 C.ar    1  UNL1        0.0082
      6 C         140.7768  142.2909  168.8930 C.ar    1  UNL1        0.0347
      7 BR        140.4154  143.3727  169.8674 Br      1  UNL1       -0.0490
      8 C         141.2073  140.9440  169.3936 C.ar    1  UNL1        0.0082
      9 C         141.5686  139.8622  168.4193 C.ar    1  UNL1        0.0197
     10 C         141.4994  140.1273  166.9446 C.ar    1  UNL1        0.0844
     11 N         141.8608  139.0455  165.9703 N.ar    1  UNL1       -0.2119
     12 C         141.7916  139.3107  164.4956 C.ar    1  UNL1        0.2211
     13 O         142.1529  138.2289  163.5212 O.3     1  UNL1       -0.4563
     14 C         140.9966  137.2733  163.5170 C.3     1  UNL1        0.2542
     15 C         140.0941  140.4789  161.7338 C.ar    1  UNL1        0.0213
     16 C         138.7138  140.8082  162.2199 C.ar    1  UNL1       -0.0007
     17 C         137.5160  140.3645  161.4335 C.ar    1  UNL1        0.0030
     18 C         137.6985  139.5915  160.1610 C.ar    1  UNL1        0.0400
     19 C         139.0789  139.2622  159.6750 C.ar    1  UNL1        0.1721
     20 C         140.2767  139.7060  160.4614 C.ar    1  UNL1        0.1687
     21 O         141.6570  139.3767  159.9753 O.3     1  UNL1       -0.4687
     22 C         141.8396  138.6037  158.7029 C.3     1  UNL1        0.2526
     23 C         140.6418  138.1600  157.9165 C.3     1  UNL1        0.2526
     24 O         139.2615  138.4892  158.4025 O.3     1  UNL1       -0.4684
     25 C         142.4205  141.6315  161.8319 C.3     1  UNL1        0.1162
     26 O         143.3292  140.4766  162.1326 O.3     1  UNL1       -0.3820
     27 H         144.2132  140.6598  161.7777 H       1  UNL1        0.2107
     28 C         140.2891  144.2980  159.8078 C.ar    1  UNL1        0.2271
     29 C         141.1978  143.1431  160.1085 C.ar    1  UNL1        0.0559
     30 C         141.5117  142.7864  161.5312 C.ar    1  UNL1        0.0117
     31 C         140.9169  143.5846  162.6533 C.ar    1  UNL1        0.0559
     32 C         140.0081  144.7395  162.3526 C.ar    1  UNL1        0.2271
     33 N         139.6943  145.0962  160.9299 N.ar    1  UNL1       -0.1767
     34 O         139.9752  144.6547  158.3850 O.3     1  UNL1       -0.4602
     35 C         142.0834  145.8714  157.4766 C.3     1  UNL1        0.0512
     36 C         140.6098  145.8598  157.7565 C.3     1  UNL1        0.2072
     37 O         139.4133  145.5377  163.4747 O.3     1  UNL1       -0.4602
     38 C         138.9084  144.8424  164.7042 C.3     1  UNL1        0.2072
     39 C         137.8579  143.7781  164.5860 C.3     1  UNL1        0.0512
     40 C         143.5491  142.3404  161.1436 C.3     1  UNL1        0.0491
     41 C         144.4998  143.1855  161.9384 C.3     1  UNL1        0.0750
     42 N         144.8350  142.8105  163.3515 N.3     1  UNL1       -0.2702
     43 C         144.1847  143.5334  164.4937 C.3     1  UNL1        0.0897
     44 C         145.8205  141.7127  163.6226 C.3     1  UNL1        0.0897
@<TRIPOS>BOND
     1    35    36    1
     2    36    34    1
     3    34    28    1
     4    28    29   ar
     5    29    30   ar
     6    30    25    1
     7    25    26    1
     8    25    40    1
     9    40    41    1
    10    41    42    1
    11    42    43    1
    12    42    44    1
    13    25     1    1
    14     1     2    1
    15     2     3   ar
    16     3     4   ar
    17     4     5   ar
    18     5     6   ar
    19     6     7    1
    20     6     8   ar
    21     8     9   ar
    22     9    10   ar
    23    10    11   ar
    24    11    12   ar
    25    12    13    1
    26    13    14    1
    27     1    15    1
    28    15    16   ar
    29    16    17   ar
    30    17    18   ar
    31    18    19   ar
    32    19    20   ar
    33    20    21    1
    34    21    22    1
    35    22    23    1
    36    23    24    1
    37    30    31   ar
    38    31    32   ar
    39    32    37    1
    40    37    38    1
    41    38    39    1
    42    32    33   ar
    43    33    28   ar
    44    12     2   ar
    45    20    15   ar
    46    10     4   ar
    47    24    19    1
    48    26    27    1
@<TRIPOS>MOLECULE
*****
 44 48 0 0 0
SMALL
GASTEIGER

@<TRIPOS>ATOM
      1 C         141.3046  140.9152  162.5078 C.3     1  UNL1        0.0807
      2 C         141.3738  140.6520  163.9830 C.ar    1  UNL1        0.0375
      3 C         141.0164  141.7363  164.9558 C.ar    1  UNL1        0.0023
      4 C         141.0855  141.4732  166.4310 C.ar    1  UNL1        0.0181
      5 C         140.7281  142.5575  167.4038 C.ar    1  UNL1        0.0082
      6 C         140.7973  142.2943  168.8789 C.ar    1  UNL1        0.0347
      7 BR        140.4399  143.3787  169.8518 Br      1  UNL1       -0.0490
      8 C         141.2238  140.9468  169.3811 C.ar    1  UNL1        0.0082
      9 C         141.5812  139.8624  168.4083 C.ar    1  UNL1        0.0197
     10 C         141.5120  140.1256  166.9332 C.ar    1  UNL1        0.0844
     11 N         141.8694  139.0413  165.9603 N.ar    1  UNL1       -0.2119
     12 C         141.8003  139.3045  164.4852 C.ar    1  UNL1        0.2211
     13 O         142.1577  138.2201  163.5123 O.3     1  UNL1       -0.4563
     14 C         140.9946  137.2730  163.5034 C.3     1  UNL1        0.2542
     15 C         140.1078  140.4686  161.7216 C.ar    1  UNL1        0.0213
     16 C         138.7268  140.7920  162.2093 C.ar    1  UNL1       -0.0007
     17 C         137.5299  140.3454  161.4231 C.ar    1  UNL1        0.0030
     18 C         137.7142  139.5754  160.1491 C.ar    1  UNL1        0.0400
     19 C         139.0953  139.2519  159.6614 C.ar    1  UNL1        0.1721
     20 C         140.2921  139.6985  160.4476 C.ar    1  UNL1        0.1687
     21 O         141.6732  139.3751  159.9598 O.3     1  UNL1       -0.4687
     22 C         141.8575  138.6050  158.6858 C.3     1  UNL1        0.2526
     23 C         140.6607  138.1584  157.8996 C.3     1  UNL1        0.2526
     24 O         139.2796  138.4819  158.3874 O.3     1  UNL1       -0.4684
     25 C         142.4323  141.6250  161.8190 C.3     1  UNL1        0.1162
     26 O         143.3423  140.4711  162.1197 O.3     1  UNL1       -0.3820
     27 H         144.2260  140.6551  161.7645 H       1  UNL1        0.2107
     28 C         140.0167  144.7304  162.3395 C.ar    1  UNL1        0.2271
     29 C         140.9267  143.5765  162.6402 C.ar    1  UNL1        0.0559
     30 C         141.5223  142.7789  161.5182 C.ar    1  UNL1        0.0117
     31 C         141.2080  143.1351  160.0955 C.ar    1  UNL1        0.0559
     32 C         140.2980  144.2890  159.7948 C.ar    1  UNL1        0.2271
     33 N         139.7024  145.0867  160.9168 N.ar    1  UNL1       -0.1767
     34 O         139.4211  145.5281  163.4616 O.3     1  UNL1       -0.4602
     35 C         137.8764  143.7287  164.5228 C.3     1  UNL1        0.0512
     36 C         138.8837  144.8296  164.6754 C.3     1  UNL1        0.2072
     37 O         139.9837  144.6453  158.3719 O.3     1  UNL1       -0.4602
     38 C         140.6046  145.8599  157.7482 C.3     1  UNL1        0.2072
     39 C         142.0794  145.8924  157.4760 C.3     1  UNL1        0.0512
     40 C         143.5600  142.3347  161.1301 C.3     1  UNL1        0.0491
     41 C         144.5090  143.1826  161.9241 C.3     1  UNL1        0.0750
     42 N         144.8466  142.8086  163.3369 N.3     1  UNL1       -0.2702
     43 C         144.1939  143.5282  164.4797 C.3     1  UNL1        0.0897
     44 C         145.8369  141.7148  163.6070 C.3     1  UNL1        0.0897
@<TRIPOS>BOND
     1    35    36    1
     2    36    34    1
     3    34    28    1
     4    28    29   ar
     5    29    30   ar
     6    30    25    1
     7    25    26    1
     8    25    40    1
     9    40    41    1
    10    41    42    1
    11    42    43    1
    12    42    44    1
    13    25     1    1
    14     1     2    1
    15     2     3   ar
    16     3     4   ar
    17     4     5   ar
    18     5     6   ar
    19     6     7    1
    20     6     8   ar
    21     8     9   ar
    22     9    10   ar
    23    10    11   ar
    24    11    12   ar
    25    12    13    1
    26    13    14    1
    27     1    15    1
    28    15    16   ar
    29    16    17   ar
    30    17    18   ar
    31    18    19   ar
    32    19    20   ar
    33    20    21    1
    34    21    22    1
    35    22    23    1
    36    23    24    1
    37    30    31   ar
    38    31    32   ar
    39    32    37    1
    40    37    38    1
    41    38    39    1
    42    32    33   ar
    43    33    28   ar
    44    12     2   ar
    45    20    15   ar
    46    10     4   ar
    47    24    19    1
    48    26    27    1
@<TRIPOS>MOLECULE
*****
 44 48 0 0 0
SMALL
GASTEIGER

@<TRIPOS>ATOM
      1 C         142.2284  141.1811  163.0965 C.3     1  UNL1        0.0807
      2 C         142.4703  141.4813  164.5461 C.ar    1  UNL1        0.0375
      3 C         141.6424  140.8074  165.5999 C.ar    1  UNL1        0.0023
      4 C         141.8843  141.1077  167.0496 C.ar    1  UNL1        0.0181
      5 C         141.0564  140.4338  168.1033 C.ar    1  UNL1        0.0082
      6 C         141.2983  140.7341  169.5529 C.ar    1  UNL1        0.0347
      7 BR        140.4704  140.0601  170.6067 Br      1  UNL1       -0.0490
      8 C         142.3680  141.7083  169.9487 C.ar    1  UNL1        0.0082
      9 C         143.1959  142.3822  168.8949 C.ar    1  UNL1        0.0197
     10 C         142.9540  142.0819  167.4453 C.ar    1  UNL1        0.0844
     11 N         143.7818  142.7558  166.3915 N.ar    1  UNL1       -0.2119
     12 C         143.5400  142.4555  164.9419 C.ar    1  UNL1        0.2211
     13 O         144.3678  143.1295  163.8881 O.3     1  UNL1       -0.4563
     14 C         143.9082  144.5568  163.8515 C.3     1  UNL1        0.2542
     15 C         141.5642  142.2011  162.2199 C.ar    1  UNL1        0.0213
     16 C         142.2352  142.6566  160.9582 C.ar    1  UNL1       -0.0007
     17 C         141.5710  143.6767  160.0816 C.ar    1  UNL1        0.0030
     18 C         140.2357  144.2411  160.4668 C.ar    1  UNL1        0.0400
     19 C         139.5646  143.7855  161.7287 C.ar    1  UNL1        0.1721
     20 C         140.2289  142.7655  162.6052 C.ar    1  UNL1        0.1687
     21 O         139.5578  142.3099  163.8670 O.3     1  UNL1       -0.4687
     22 C         138.2226  142.8744  164.2522 C.3     1  UNL1        0.2526
     23 C         137.5583  143.8944  163.3757 C.3     1  UNL1        0.2526
     24 O         138.2293  144.3499  162.1139 O.3     1  UNL1       -0.4684
     25 C         142.6509  139.8608  162.5234 C.3     1  UNL1        0.1162
     26 O         144.0722  140.3375  162.4728 O.3     1  UNL1       -0.3820
     27 H         144.6361  139.6353  162.1125 H       1  UNL1        0.2107
     28 C         139.3121  138.1536  163.8229 C.ar    1  UNL1        0.2271
     29 C         140.7335  138.6304  163.7723 C.ar    1  UNL1        0.0559
     30 C         141.2295  139.3840  162.5740 C.ar    1  UNL1        0.0117
     31 C         140.3043  139.6610  161.4264 C.ar    1  UNL1        0.0559
     32 C         138.8829  139.1843  161.4770 C.ar    1  UNL1        0.2271
     33 N         138.3869  138.4306  162.6752 N.ar    1  UNL1       -0.1767
     34 O         138.8161  137.3999  165.0212 O.3     1  UNL1       -0.4602
     35 C         138.0729  139.6338  166.1199 C.3     1  UNL1        0.0512
     36 C         138.1710  138.1375  166.1569 C.3     1  UNL1        0.2072
     37 O         137.9577  139.4612  160.3292 O.3     1  UNL1       -0.4602
     38 C         138.4938  140.0539  159.0599 C.3     1  UNL1        0.2072
     39 C         138.3753  141.5286  158.8120 C.3     1  UNL1        0.0512
     40 C         143.0733  138.5405  161.9504 C.3     1  UNL1        0.0491
     41 C         144.0097  138.4962  160.7794 C.3     1  UNL1        0.0750
     42 N         143.5304  138.9103  159.4197 N.3     1  UNL1       -0.2702
     43 C         142.6729  137.9818  158.6119 C.3     1  UNL1        0.0897
     44 C         143.9086  140.2528  158.8678 C.3     1  UNL1        0.0897
@<TRIPOS>BOND
     1    35    36    1
     2    36    34    1
     3    34    28    1
     4    28    29   ar
     5    29    30   ar
     6    30    25    1
     7    25    26    1
     8    25    40    1
     9    40    41    1
    10    41    42    1
    11    42    43    1
    12    42    44    1
    13    25     1    1
    14     1     2    1
    15     2     3   ar
    16     3     4   ar
    17     4     5   ar
    18     5     6   ar
    19     6     7    1
    20     6     8   ar
    21     8     9   ar
    22     9    10   ar
    23    10    11   ar
    24    11    12   ar
    25    12    13    1
    26    13    14    1
    27     1    15    1
    28    15    16   ar
    29    16    17   ar
    30    17    18   ar
    31    18    19   ar
    32    19    20   ar
    33    20    21    1
    34    21    22    1
    35    22    23    1
    36    23    24    1
    37    30    31   ar
    38    31    32   ar
    39    32    37    1
    40    37    38    1
    41    38    39    1
    42    32    33   ar
    43    33    28   ar
    44    12     2   ar
    45    20    15   ar
    46    10     4   ar
    47    24    19    1
    48    26    27    1
@<TRIPOS>MOLECULE
*****
 44 48 0 0 0
SMALL
GASTEIGER

@<TRIPOS>ATOM
      1 C         141.4935  140.2707  162.8316 C.3     1  UNL1        0.0807
      2 C         141.7139  140.0284  164.2954 C.ar    1  UNL1        0.0375
      3 C         140.6343  140.3623  165.2818 C.ar    1  UNL1        0.0023
      4 C         140.8547  140.1200  166.7456 C.ar    1  UNL1        0.0181
      5 C         139.7751  140.4539  167.7320 C.ar    1  UNL1        0.0082
      6 C         139.9955  140.2116  169.1957 C.ar    1  UNL1        0.0347
      7 BR        138.9159  140.5456  170.1822 Br      1  UNL1       -0.0490
      8 C         141.2955  139.6355  169.6732 C.ar    1  UNL1        0.0082
      9 C         142.3751  139.3015  168.6868 C.ar    1  UNL1        0.0197
     10 C         142.1547  139.5438  167.2231 C.ar    1  UNL1        0.0844
     11 N         143.2344  139.2099  166.2366 N.ar    1  UNL1       -0.2119
     12 C         143.0139  139.4522  164.7729 C.ar    1  UNL1        0.2211
     13 O         144.0936  139.1183  163.7865 O.3     1  UNL1       -0.4563
     14 C         145.2234  140.0618  164.0751 C.3     1  UNL1        0.2542
     15 C         142.4714  141.0999  162.0531 C.ar    1  UNL1        0.0213
     16 C         143.0613  140.5668  160.7812 C.ar    1  UNL1       -0.0007
     17 C         144.0392  141.3960  160.0026 C.ar    1  UNL1        0.0030
     18 C         144.4271  142.7584  160.4960 C.ar    1  UNL1        0.0400
     19 C         143.8372  143.2915  161.7679 C.ar    1  UNL1        0.1721
     20 C         142.8593  142.4623  162.5464 C.ar    1  UNL1        0.1687
     21 O         142.2694  142.9954  163.8183 O.3     1  UNL1       -0.4687
     22 C         142.6573  144.3578  164.3117 C.3     1  UNL1        0.2526
     23 C         143.6352  145.1871  163.5332 C.3     1  UNL1        0.2526
     24 O         144.2251  144.6539  162.2613 O.3     1  UNL1       -0.4684
     25 C         140.2953  139.6837  162.1463 C.3     1  UNL1        0.1162
     26 O         140.8773  138.3103  162.3050 O.3     1  UNL1       -0.3820
     27 H         140.2722  137.6564  161.9214 H       1  UNL1        0.2107
     28 C         139.2040  143.1271  160.5027 C.ar    1  UNL1        0.2271
     29 C         139.7860  141.7538  160.6613 C.ar    1  UNL1        0.0559
     30 C         139.7132  141.0570  161.9876 C.ar    1  UNL1        0.0117
     31 C         139.0584  141.7335  163.1553 C.ar    1  UNL1        0.0559
     32 C         138.4764  143.1069  162.9966 C.ar    1  UNL1        0.2271
     33 N         138.5492  143.8037  161.6703 N.ar    1  UNL1       -0.1767
     34 O         139.2768  143.8239  159.1763 O.3     1  UNL1       -0.4602
     35 C         141.6707  144.8334  159.1836 C.3     1  UNL1        0.0512
     36 C         140.1918  144.9987  158.9955 C.3     1  UNL1        0.2072
     37 O         137.8216  143.7834  164.1644 O.3     1  UNL1       -0.4602
     38 C         138.6479  144.5816  165.1288 C.3     1  UNL1        0.2072
     39 C         139.5551  143.8819  166.0971 C.3     1  UNL1        0.0512
     40 C         139.0970  139.0966  161.4610 C.3     1  UNL1        0.0491
     41 C         139.2793  138.1205  160.3369 C.3     1  UNL1        0.0750
     42 N         139.9704  138.5487  159.0763 N.3     1  UNL1       -0.2702
     43 C         141.3916  138.1407  158.8244 C.3     1  UNL1        0.0897
     44 C         139.2402  139.3849  158.0676 C.3     1  UNL1        0.0897
@<TRIPOS>BOND
     1    35    36    1
     2    36    34    1
     3    34    28    1
     4    28    29   ar
     5    29    30   ar
     6    30    25    1
     7    25    26    1
     8    25    40    1
     9    40    41    1
    10    41    42    1
    11    42    43    1
    12    42    44    1
    13    25     1    1
    14     1     2    1
    15     2     3   ar
    16     3     4   ar
    17     4     5   ar
    18     5     6   ar
    19     6     7    1
    20     6     8   ar
    21     8     9   ar
    22     9    10   ar
    23    10    11   ar
    24    11    12   ar
    25    12    13    1
    26    13    14    1
    27     1    15    1
    28    15    16   ar
    29    16    17   ar
    30    17    18   ar
    31    18    19   ar
    32    19    20   ar
    33    20    21    1
    34    21    22    1
    35    22    23    1
    36    23    24    1
    37    30    31   ar
    38    31    32   ar
    39    32    37    1
    40    37    38    1
    41    38    39    1
    42    32    33   ar
    43    33    28   ar
    44    12     2   ar
    45    20    15   ar
    46    10     4   ar
    47    24    19    1
    48    26    27    1
@<TRIPOS>MOLECULE
*****
 44 48 0 0 0
SMALL
GASTEIGER

@<TRIPOS>ATOM
      1 C         142.3063  141.4572  163.0264 C.3     1  UNL1        0.0807
      2 C         142.5552  141.6941  164.4866 C.ar    1  UNL1        0.0375
      3 C         141.7460  140.9598  165.5142 C.ar    1  UNL1        0.0023
      4 C         141.9949  141.1967  166.9743 C.ar    1  UNL1        0.0181
      5 C         141.1858  140.4624  168.0019 C.ar    1  UNL1        0.0082
      6 C         141.4347  140.6993  169.4620 C.ar    1  UNL1        0.0347
      7 BR        140.6255  139.9649  170.4896 Br      1  UNL1       -0.0490
      8 C         142.4928  141.6706  169.8945 C.ar    1  UNL1        0.0082
      9 C         143.3019  142.4049  168.8669 C.ar    1  UNL1        0.0197
     10 C         143.0530  142.1680  167.4068 C.ar    1  UNL1        0.0844
     11 N         143.8622  142.9023  166.3792 N.ar    1  UNL1       -0.2119
     12 C         143.6133  142.6654  164.9191 C.ar    1  UNL1        0.2211
     13 O         144.4225  143.3998  163.8915 O.3     1  UNL1       -0.4563
     14 C         143.9056  144.8078  163.8873 C.3     1  UNL1        0.2542
     15 C         141.6645  142.5257  162.1920 C.ar    1  UNL1        0.0213
     16 C         142.3727  143.0589  160.9820 C.ar    1  UNL1       -0.0007
     17 C         141.7309  144.1275  160.1475 C.ar    1  UNL1        0.0030
     18 C         140.3809  144.6627  160.5230 C.ar    1  UNL1        0.0400
     19 C         139.6727  144.1295  161.7331 C.ar    1  UNL1        0.1721
     20 C         140.3145  143.0610  162.5675 C.ar    1  UNL1        0.1687
     21 O         139.6063  142.5277  163.7775 O.3     1  UNL1       -0.4687
     22 C         138.2563  143.0630  164.1530 C.3     1  UNL1        0.2526
     23 C         137.6145  144.1315  163.3185 C.3     1  UNL1        0.2526
     24 O         138.3227  144.6647  162.1086 O.3     1  UNL1       -0.4684
     25 C         142.6993  140.1518  162.4008 C.3     1  UNL1        0.1162
     26 O         144.1432  140.5514  162.4737 O.3     1  UNL1       -0.3820
     27 H         144.6940  139.8417  162.1080 H       1  UNL1        0.2107
     28 C         139.0543  139.5075  160.9694 C.ar    1  UNL1        0.2271
     29 C         140.4982  139.9072  161.0423 C.ar    1  UNL1        0.0559
     30 C         141.2553  139.7521  162.3279 C.ar    1  UNL1        0.0117
     31 C         140.5685  139.1973  163.5405 C.ar    1  UNL1        0.0559
     32 C         139.1246  138.7976  163.4676 C.ar    1  UNL1        0.2271
     33 N         138.3675  138.9527  162.1820 N.ar    1  UNL1       -0.1767
     34 O         138.2972  139.6626  159.6838 O.3     1  UNL1       -0.4602
     35 C         138.6168  141.9694  158.5321 C.3     1  UNL1        0.0512
     36 C         138.8690  140.4913  158.5719 C.3     1  UNL1        0.2072
     37 O         138.4378  138.2429  164.6803 O.3     1  UNL1       -0.4602
     38 C         138.1063  139.1441  165.8325 C.3     1  UNL1        0.2072
     39 C         137.6964  138.5566  167.1505 C.3     1  UNL1        0.0512
     40 C         143.0922  138.8463  161.7752 C.3     1  UNL1        0.0491
     41 C         144.0546  138.8255  160.6249 C.3     1  UNL1        0.0750
     42 N         143.5615  139.0720  159.2299 N.3     1  UNL1       -0.2702
     43 C         142.7152  138.0431  158.5408 C.3     1  UNL1        0.0897
     44 C         143.9148  140.3474  158.5239 C.3     1  UNL1        0.0897
@<TRIPOS>BOND
     1    35    36    1
     2    36    34    1
     3    34    28    1
     4    28    29   ar
     5    29    30   ar
     6    30    25    1
     7    25    26    1
     8    25    40    1
     9    40    41    1
    10    41    42    1
    11    42    43    1
    12    42    44    1
    13    25     1    1
    14     1     2    1
    15     2     3   ar
    16     3     4   ar
    17     4     5   ar
    18     5     6   ar
    19     6     7    1
    20     6     8   ar
    21     8     9   ar
    22     9    10   ar
    23    10    11   ar
    24    11    12   ar
    25    12    13    1
    26    13    14    1
    27     1    15    1
    28    15    16   ar
    29    16    17   ar
    30    17    18   ar
    31    18    19   ar
    32    19    20   ar
    33    20    21    1
    34    21    22    1
    35    22    23    1
    36    23    24    1
    37    30    31   ar
    38    31    32   ar
    39    32    37    1
    40    37    38    1
    41    38    39    1
    42    32    33   ar
    43    33    28   ar
    44    12     2   ar
    45    20    15   ar
    46    10     4   ar
    47    24    19    1
    48    26    27    1
@<TRIPOS>MOLECULE
*****
 44 48 0 0 0
SMALL
GASTEIGER

@<TRIPOS>ATOM
      1 C         141.9060  141.7385  162.4742 C.3     1  UNL1        0.0807
      2 C         142.2527  141.9077  163.9239 C.ar    1  UNL1        0.0375
      3 C         141.2260  141.6205  164.9790 C.ar    1  UNL1        0.0023
      4 C         141.5726  141.7898  166.4286 C.ar    1  UNL1        0.0181
      5 C         140.5459  141.5026  167.4837 C.ar    1  UNL1        0.0082
      6 C         140.8925  141.6718  168.9332 C.ar    1  UNL1        0.0347
      7 BR        139.8658  141.3846  169.9884 Br      1  UNL1       -0.0490
      8 C         142.2659  142.1282  169.3276 C.ar    1  UNL1        0.0082
      9 C         143.2926  142.4154  168.2725 C.ar    1  UNL1        0.0197
     10 C         142.9460  142.2462  166.8230 C.ar    1  UNL1        0.0844
     11 N         143.9727  142.5333  165.7678 N.ar    1  UNL1       -0.2119
     12 C         143.6261  142.3641  164.3182 C.ar    1  UNL1        0.2211
     13 O         144.6528  142.6513  163.2630 O.3     1  UNL1       -0.4563
     14 C         145.7459  141.6441  163.4650 C.3     1  UNL1        0.2542
     15 C         142.3897  140.5336  161.7232 C.ar    1  UNL1        0.0213
     16 C         142.1546  139.1599  162.2778 C.ar    1  UNL1       -0.0007
     17 C         142.6383  137.9549  161.5267 C.ar    1  UNL1        0.0030
     18 C         143.3569  138.1236  160.2210 C.ar    1  UNL1        0.0400
     19 C         143.5920  139.4974  159.6663 C.ar    1  UNL1        0.1721
     20 C         143.1084  140.7023  160.4174 C.ar    1  UNL1        0.1687
     21 O         143.3434  142.0760  159.8627 O.3     1  UNL1       -0.4687
     22 C         144.0621  142.2447  158.5570 C.3     1  UNL1        0.2526
     23 C         144.5458  141.0398  157.8059 C.3     1  UNL1        0.2526
     24 O         144.3107  139.6661  158.3606 O.3     1  UNL1       -0.4684
     25 C         141.0758  142.7743  161.7758 C.3     1  UNL1        0.1162
     26 O         142.1972  143.7618  161.9071 O.3     1  UNL1       -0.3820
     27 H         141.9328  144.6061  161.5095 H       1  UNL1        0.2107
     28 C         138.1927  140.2238  162.7416 C.ar    1  UNL1        0.2271
     29 C         139.3141  141.2113  162.8729 C.ar    1  UNL1        0.0559
     30 C         139.9543  141.7868  161.6445 C.ar    1  UNL1        0.0117
     31 C         139.4730  141.3749  160.2849 C.ar    1  UNL1        0.0559
     32 C         138.3516  140.3874  160.1536 C.ar    1  UNL1        0.2271
     33 N         137.7114  139.8119  161.3820 N.ar    1  UNL1       -0.1767
     34 O         137.5525  139.6483  163.9701 O.3     1  UNL1       -0.4602
     35 C         139.4077  138.2189  165.0947 C.3     1  UNL1        0.0512
     36 C         138.3916  139.3197  165.1692 C.3     1  UNL1        0.2072
     37 O         137.8703  139.9755  158.7939 O.3     1  UNL1       -0.4602
     38 C         138.0074  140.9156  157.6332 C.3     1  UNL1        0.2072
     39 C         136.8211  141.2131  156.7647 C.3     1  UNL1        0.0512
     40 C         140.2455  143.8101  161.0774 C.3     1  UNL1        0.0491
     41 C         139.7024  144.9786  161.8452 C.3     1  UNL1        0.0750
     42 N         139.0183  144.7582  163.1618 N.3     1  UNL1       -0.2702
     43 C         137.5737  144.3560  163.1983 C.3     1  UNL1        0.0897
     44 C         139.7787  144.9401  164.4418 C.3     1  UNL1        0.0897
@<TRIPOS>BOND
     1    35    36    1
     2    36    34    1
     3    34    28    1
     4    28    29   ar
     5    29    30   ar
     6    30    25    1
     7    25    26    1
     8    25    40    1
     9    40    41    1
    10    41    42    1
    11    42    43    1
    12    42    44    1
    13    25     1    1
    14     1     2    1
    15     2     3   ar
    16     3     4   ar
    17     4     5   ar
    18     5     6   ar
    19     6     7    1
    20     6     8   ar
    21     8     9   ar
    22     9    10   ar
    23    10    11   ar
    24    11    12   ar
    25    12    13    1
    26    13    14    1
    27     1    15    1
    28    15    16   ar
    29    16    17   ar
    30    17    18   ar
    31    18    19   ar
    32    19    20   ar
    33    20    21    1
    34    21    22    1
    35    22    23    1
    36    23    24    1
    37    30    31   ar
    38    31    32   ar
    39    32    37    1
    40    37    38    1
    41    38    39    1
    42    32    33   ar
    43    33    28   ar
    44    12     2   ar
    45    20    15   ar
    46    10     4   ar
    47    24    19    1
    48    26    27    1
@<TRIPOS>MOLECULE
*****
 44 48 0 0 0
SMALL
GASTEIGER

@<TRIPOS>ATOM
      1 C         141.3859  142.4002  162.4137 C.3     1  UNL1        0.0807
      2 C         141.8826  142.3523  163.8283 C.ar    1  UNL1        0.0375
      3 C         141.0581  141.6875  164.8905 C.ar    1  UNL1        0.0023
      4 C         141.5548  141.6396  166.3052 C.ar    1  UNL1        0.0181
      5 C         140.7304  140.9748  167.3674 C.ar    1  UNL1        0.0082
      6 C         141.2271  140.9269  168.7819 C.ar    1  UNL1        0.0347
      7 BR        140.4027  140.2621  169.8442 Br      1  UNL1       -0.0490
      8 C         142.5482  141.5438  169.1343 C.ar    1  UNL1        0.0082
      9 C         143.3726  142.2086  168.0720 C.ar    1  UNL1        0.0197
     10 C         142.8759  142.2565  166.6575 C.ar    1  UNL1        0.0844
     11 N         143.7003  142.9213  165.5952 N.ar    1  UNL1       -0.2119
     12 C         143.2037  142.9692  164.1807 C.ar    1  UNL1        0.2211
     13 O         144.0281  143.6340  163.1184 O.3     1  UNL1       -0.4563
     14 C         143.8154  145.1086  163.2926 C.3     1  UNL1        0.2542
     15 C         142.2635  141.9245  161.2942 C.ar    1  UNL1        0.0213
     16 C         142.5759  142.8380  160.1461 C.ar    1  UNL1       -0.0007
     17 C         143.4536  142.3623  159.0265 C.ar    1  UNL1        0.0030
     18 C         144.0189  140.9732  159.0550 C.ar    1  UNL1        0.0400
     19 C         143.7066  140.0598  160.2031 C.ar    1  UNL1        0.1721
     20 C         142.8289  140.5355  161.3227 C.ar    1  UNL1        0.1687
     21 O         142.5166  139.6220  162.4707 O.3     1  UNL1       -0.4687
     22 C         143.0819  138.2329  162.4992 C.3     1  UNL1        0.2526
     23 C         143.9596  137.7573  161.3797 C.3     1  UNL1        0.2526
     24 O         144.2719  138.6707  160.2317 O.3     1  UNL1       -0.4684
     25 C         140.0115  142.9238  162.1187 C.3     1  UNL1        0.1162
     26 O         140.4490  144.3002  162.5238 O.3     1  UNL1       -0.3820
     27 H         139.7054  144.9161  162.4312 H       1  UNL1        0.2107
     28 C         138.9428  139.1088  162.3498 C.ar    1  UNL1        0.2271
     29 C         139.3803  140.4852  162.7549 C.ar    1  UNL1        0.0559
     30 C         139.5741  141.5474  161.7136 C.ar    1  UNL1        0.0117
     31 C         139.3305  141.2331  160.2673 C.ar    1  UNL1        0.0559
     32 C         138.8931  139.8567  159.8622 C.ar    1  UNL1        0.2271
     33 N         138.6992  138.7945  160.9035 N.ar    1  UNL1       -0.1767
     34 O         138.7490  138.0466  163.3911 O.3     1  UNL1       -0.4602
     35 C         138.2851  138.6624  165.8721 C.3     1  UNL1        0.0512
     36 C         139.2451  138.2677  164.7893 C.3     1  UNL1        0.2072
     37 O         138.6495  139.5424  158.4158 O.3     1  UNL1       -0.4602
     38 C         138.5311  140.6546  157.4163 C.3     1  UNL1        0.2072
     39 C         137.1806  141.2007  157.0584 C.3     1  UNL1        0.0512
     40 C         138.6372  143.4474  161.8237 C.3     1  UNL1        0.0491
     41 C         137.9000  144.2442  162.8589 C.3     1  UNL1        0.0750
     42 N         138.0055  143.8712  164.3079 N.3     1  UNL1       -0.2702
     43 C         137.5665  142.5122  164.7665 C.3     1  UNL1        0.0897
     44 C         138.5501  144.8572  165.2984 C.3     1  UNL1        0.0897
@<TRIPOS>BOND
     1    35    36    1
     2    36    34    1
     3    34    28    1
     4    28    29   ar
     5    29    30   ar
     6    30    25    1
     7    25    26    1
     8    25    40    1
     9    40    41    1
    10    41    42    1
    11    42    43    1
    12    42    44    1
    13    25     1    1
    14     1     2    1
    15     2     3   ar
    16     3     4   ar
    17     4     5   ar
    18     5     6   ar
    19     6     7    1
    20     6     8   ar
    21     8     9   ar
    22     9    10   ar
    23    10    11   ar
    24    11    12   ar
    25    12    13    1
    26    13    14    1
    27     1    15    1
    28    15    16   ar
    29    16    17   ar
    30    17    18   ar
    31    18    19   ar
    32    19    20   ar
    33    20    21    1
    34    21    22    1
    35    22    23    1
    36    23    24    1
    37    30    31   ar
    38    31    32   ar
    39    32    37    1
    40    37    38    1
    41    38    39    1
    42    32    33   ar
    43    33    28   ar
    44    12     2   ar
    45    20    15   ar
    46    10     4   ar
    47    24    19    1
    48    26    27    1
@<TRIPOS>MOLECULE
*****
 44 48 0 0 0
SMALL
GASTEIGER

@<TRIPOS>ATOM
      1 C         141.6676  141.7405  162.7705 C.3     1  UNL1        0.0807
      2 C         142.0431  141.9033  164.2137 C.ar    1  UNL1        0.0375
      3 C         141.0415  141.5996  165.2881 C.ar    1  UNL1        0.0023
      4 C         141.4170  141.7624  166.7312 C.ar    1  UNL1        0.0181
      5 C         140.4154  141.4588  167.8057 C.ar    1  UNL1        0.0082
      6 C         140.7909  141.6215  169.2487 C.ar    1  UNL1        0.0347
      7 BR        139.7893  141.3179  170.3233 Br      1  UNL1       -0.0490
      8 C         142.1681  142.0880  169.6173 C.ar    1  UNL1        0.0082
      9 C         143.1697  142.3916  168.5429 C.ar    1  UNL1        0.0197
     10 C         142.7942  142.2288  167.0998 C.ar    1  UNL1        0.0844
     11 N         143.7959  142.5325  166.0253 N.ar    1  UNL1       -0.2119
     12 C         143.4203  142.3697  164.5822 C.ar    1  UNL1        0.2211
     13 O         144.4220  142.6733  163.5077 O.3     1  UNL1       -0.4563
     14 C         145.5889  141.7658  163.7620 C.3     1  UNL1        0.2542
     15 C         142.4991  140.8734  161.8724 C.ar    1  UNL1        0.0213
     16 C         142.8200  139.4650  162.2767 C.ar    1  UNL1       -0.0007
     17 C         143.6515  138.5978  161.3785 C.ar    1  UNL1        0.0030
     18 C         144.1621  139.1391  160.0761 C.ar    1  UNL1        0.0400
     19 C         143.8412  140.5475  159.6718 C.ar    1  UNL1        0.1721
     20 C         143.0097  141.4146  160.5699 C.ar    1  UNL1        0.1687
     21 O         142.6888  142.8230  160.1656 O.3     1  UNL1       -0.4687
     22 C         143.1994  143.3642  158.8632 C.3     1  UNL1        0.2526
     23 C         144.0309  142.4971  157.9650 C.3     1  UNL1        0.2526
     24 O         144.3518  141.0887  158.3694 O.3     1  UNL1       -0.4684
     25 C         140.4606  142.4449  162.2256 C.3     1  UNL1        0.1162
     26 O         141.0672  143.7672  162.5912 O.3     1  UNL1       -0.3820
     27 H         140.4621  144.4816  162.3377 H       1  UNL1        0.2107
     28 C         139.0293  139.4482  160.0528 C.ar    1  UNL1        0.2271
     29 C         139.6359  140.7705  160.4184 C.ar    1  UNL1        0.0559
     30 C         139.8540  141.1226  161.8600 C.ar    1  UNL1        0.0117
     31 C         139.4655  140.1525  162.9361 C.ar    1  UNL1        0.0559
     32 C         138.8589  138.8303  162.5705 C.ar    1  UNL1        0.2271
     33 N         138.6408  138.4781  161.1289 N.ar    1  UNL1       -0.1767
     34 O         138.8112  139.0960  158.6111 O.3     1  UNL1       -0.4602
     35 C         141.2117  138.6921  157.7032 C.3     1  UNL1        0.0512
     36 C         139.7993  138.2245  157.8942 C.3     1  UNL1        0.2072
     37 O         138.4704  137.8601  163.6466 O.3     1  UNL1       -0.4602
     38 C         139.0064  138.0286  165.0374 C.3     1  UNL1        0.2072
     39 C         138.1819  138.7239  166.0799 C.3     1  UNL1        0.0512
     40 C         139.2536  143.1493  161.6807 C.3     1  UNL1        0.0491
     41 C         138.5047  144.1263  162.5378 C.3     1  UNL1        0.0750
     42 N         138.3355  143.8613  164.0045 N.3     1  UNL1       -0.2702
     43 C         138.9168  144.8103  165.0100 C.3     1  UNL1        0.0897
     44 C         137.5848  142.6473  164.4655 C.3     1  UNL1        0.0897
@<TRIPOS>BOND
     1    35    36    1
     2    36    34    1
     3    34    28    1
     4    28    29   ar
     5    29    30   ar
     6    30    25    1
     7    25    26    1
     8    25    40    1
     9    40    41    1
    10    41    42    1
    11    42    43    1
    12    42    44    1
    13    25     1    1
    14     1     2    1
    15     2     3   ar
    16     3     4   ar
    17     4     5   ar
    18     5     6   ar
    19     6     7    1
    20     6     8   ar
    21     8     9   ar
    22     9    10   ar
    23    10    11   ar
    24    11    12   ar
    25    12    13    1
    26    13    14    1
    27     1    15    1
    28    15    16   ar
    29    16    17   ar
    30    17    18   ar
    31    18    19   ar
    32    19    20   ar
    33    20    21    1
    34    21    22    1
    35    22    23    1
    36    23    24    1
    37    30    31   ar
    38    31    32   ar
    39    32    37    1
    40    37    38    1
    41    38    39    1
    42    32    33   ar
    43    33    28   ar
    44    12     2   ar
    45    20    15   ar
    46    10     4   ar
    47    24    19    1
    48    26    27    1
@<TRIPOS>MOLECULE
*****
 44 48 0 0 0
SMALL
GASTEIGER

@<TRIPOS>ATOM
      1 C         141.5919  141.3808  163.2985 C.3     1  UNL1        0.0807
      2 C         142.0152  141.6183  164.7179 C.ar    1  UNL1        0.0375
      3 C         141.2498  140.9892  165.8441 C.ar    1  UNL1        0.0023
      4 C         141.6730  141.2267  167.2634 C.ar    1  UNL1        0.0181
      5 C         140.9076  140.5976  168.3896 C.ar    1  UNL1        0.0082
      6 C         141.3309  140.8351  169.8089 C.ar    1  UNL1        0.0347
      7 BR        140.5655  140.2060  170.9351 Br      1  UNL1       -0.0490
      8 C         142.5196  141.7018  170.1020 C.ar    1  UNL1        0.0082
      9 C         143.2850  142.3309  168.9758 C.ar    1  UNL1        0.0197
     10 C         142.8617  142.0934  167.5565 C.ar    1  UNL1        0.0844
     11 N         143.6271  142.7225  166.4303 N.ar    1  UNL1       -0.2119
     12 C         143.2038  142.4850  165.0110 C.ar    1  UNL1        0.2211
     13 O         143.9693  143.1141  163.8847 O.3     1  UNL1       -0.4563
     14 C         143.9056  144.5945  164.1179 C.3     1  UNL1        0.2542
     15 C         142.4480  140.5495  162.3897 C.ar    1  UNL1        0.0213
     16 C         142.7890  139.1377  162.7645 C.ar    1  UNL1       -0.0007
     17 C         143.6452  138.3063  161.8557 C.ar    1  UNL1        0.0030
     18 C         144.1603  138.8869  160.5721 C.ar    1  UNL1        0.0400
     19 C         143.8193  140.2988  160.1973 C.ar    1  UNL1        0.1721
     20 C         142.9632  141.1300  161.1061 C.ar    1  UNL1        0.1687
     21 O         142.6222  142.5418  160.7313 O.3     1  UNL1       -0.4687
     22 C         143.1373  143.1224  159.4477 C.3     1  UNL1        0.2526
     23 C         143.9934  142.2911  158.5389 C.3     1  UNL1        0.2526
     24 O         144.3344  140.8793  158.9137 O.3     1  UNL1       -0.4684
     25 C         140.3125  141.9745  162.7881 C.3     1  UNL1        0.1162
     26 O         140.8572  143.3519  163.0250 O.3     1  UNL1       -0.3820
     27 H         140.1946  144.0108  162.7648 H       1  UNL1        0.2107
     28 C         138.8133  138.3651  163.4769 C.ar    1  UNL1        0.2271
     29 C         139.3581  139.7425  163.7138 C.ar    1  UNL1        0.0559
     30 C         139.7678  140.5972  162.5512 C.ar    1  UNL1        0.0117
     31 C         139.6328  140.0745  161.1517 C.ar    1  UNL1        0.0559
     32 C         139.0880  138.6971  160.9148 C.ar    1  UNL1        0.2271
     33 N         138.6783  137.8424  162.0774 N.ar    1  UNL1       -0.1767
     34 O         138.4036  137.5104  164.6395 O.3     1  UNL1       -0.4602
     35 C         137.7101  138.5741  166.9061 C.3     1  UNL1        0.0512
     36 C         138.7496  137.9300  166.0375 C.3     1  UNL1        0.2072
     37 O         138.9530  138.1744  159.5153 O.3     1  UNL1       -0.4602
     38 C         139.5317  138.9469  158.3671 C.3     1  UNL1        0.2072
     39 C         139.8834  138.2423  157.0904 C.3     1  UNL1        0.0512
     40 C         139.0331  142.5683  162.2776 C.3     1  UNL1        0.0491
     41 C         139.0206  143.9642  161.7287 C.3     1  UNL1        0.0750
     42 N         139.5726  144.2372  160.3610 N.3     1  UNL1       -0.2702
     43 C         139.3687  143.2419  159.2575 C.3     1  UNL1        0.0897
     44 C         140.3286  145.5055  160.0967 C.3     1  UNL1        0.0897
@<TRIPOS>BOND
     1    35    36    1
     2    36    34    1
     3    34    28    1
     4    28    29   ar
     5    29    30   ar
     6    30    25    1
     7    25    26    1
     8    25    40    1
     9    40    41    1
    10    41    42    1
    11    42    43    1
    12    42    44    1
    13    25     1    1
    14     1     2    1
    15     2     3   ar
    16     3     4   ar
    17     4     5   ar
    18     5     6   ar
    19     6     7    1
    20     6     8   ar
    21     8     9   ar
    22     9    10   ar
    23    10    11   ar
    24    11    12   ar
    25    12    13    1
    26    13    14    1
    27     1    15    1
    28    15    16   ar
    29    16    17   ar
    30    17    18   ar
    31    18    19   ar
    32    19    20   ar
    33    20    21    1
    34    21    22    1
    35    22    23    1
    36    23    24    1
    37    30    31   ar
    38    31    32   ar
    39    32    37    1
    40    37    38    1
    41    38    39    1
    42    32    33   ar
    43    33    28   ar
    44    12     2   ar
    45    20    15   ar
    46    10     4   ar
    47    24    19    1
    48    26    27    1
