@<TRIPOS>MOLECULE
*****
 28 31 0 0 0
SMALL
GASTEIGER

@<TRIPOS>ATOM
      1 C         140.9785  141.6462  165.3926 C.ar    1  UNL1        0.0735
      2 C         140.9199  142.1248  166.8130 C.ar    1  UNL1        0.1655
      3 O         140.0114  143.3174  166.8631 O.2     1  UNL1       -0.4519
      4 C         139.5085  143.5758  165.4737 C.ar    1  UNL1        0.1454
      5 C         138.5836  144.6181  164.9187 C.ar    1  UNL1        0.0406
      6 C         138.2564  144.6275  163.4549 C.ar    1  UNL1        0.0395
      7 C         138.8541  143.5946  162.5461 C.ar    1  UNL1        0.1311
      8 O         138.5268  143.6041  161.0822 O.3     1  UNL1       -0.5058
      9 C         139.7790  142.5523  163.1011 C.ar    1  UNL1        0.0307
     10 C         140.1062  142.5429  164.5649 C.ar    1  UNL1        0.0406
     11 H         137.9491  144.2552  160.7355 H       1  UNL1        0.2922
     12 C         141.6428  141.5176  167.9786 C.ar    1  UNL1        0.1160
     13 C         142.7800  142.2542  168.6222 C.ar    1  UNL1        0.0254
     14 C         143.5029  141.6469  169.7878 C.ar    1  UNL1        0.0399
     15 C         143.0887  140.3031  170.3098 C.ar    1  UNL1        0.1528
     16 O         143.8116  139.6959  171.4754 O.3     1  UNL1       -0.5039
     17 C         141.9515  139.5665  169.6662 C.ar    1  UNL1        0.1354
     18 N         141.2286  140.1738  168.5006 N.ar    1  UNL1       -0.2376
     19 H         144.5220  140.1560  171.8774 H       1  UNL1        0.2923
     20 C         141.2190  139.0869  165.0153 C.3     1  UNL1        0.0774
     21 C         141.7703  140.4762  164.8885 C.2     1  UNL1        0.1766
     22 O         143.1133  140.6954  164.2575 O.2     1  UNL1       -0.2912
     23 C         140.3767  141.5194  162.1923 C.3     1  UNL1        0.1023
     24 N         139.6503  140.2315  161.9405 N.3     1  UNL1       -0.2689
     25 C         140.1068  139.1235  161.0381 C.3     1  UNL1        0.0724
     26 C         139.0784  138.0325  161.0868 C.3     1  UNL1        0.0188
     27 C         137.9863  138.4663  162.0192 C.3     1  UNL1        0.0188
     28 C         138.3397  139.8252  162.5467 C.3     1  UNL1        0.0724
@<TRIPOS>BOND
     1    20    21    1
     2    21    22    2
     3    21     1    1
     4     1     2   ar
     5     2    12    1
     6    12    13   ar
     7    13    14   ar
     8    14    15   ar
     9    15    16    1
    10    15    17   ar
    11    17    18   ar
    12     2     3   ar
    13     3     4   ar
    14     4     5   ar
    15     5     6   ar
    16     6     7   ar
    17     7     8    1
    18     7     9   ar
    19     9    23    1
    20    23    24    1
    21    24    25    1
    22    25    26    1
    23    26    27    1
    24    27    28    1
    25     9    10   ar
    26    10     1   ar
    27    18    12   ar
    28    10     4   ar
    29    28    24    1
    30    16    19    1
    31     8    11    1
@<TRIPOS>MOLECULE
*****
 28 31 0 0 0
SMALL
GASTEIGER

@<TRIPOS>ATOM
      1 C         139.5976  141.4344  165.9091 C.ar    1  UNL1        0.0735
      2 C         140.1290  142.3147  167.0011 C.ar    1  UNL1        0.1655
      3 O         139.9654  143.7413  166.5673 O.2     1  UNL1       -0.4519
      4 C         139.3330  143.7426  165.2072 C.ar    1  UNL1        0.1454
      5 C         138.9347  144.8578  164.2866 C.ar    1  UNL1        0.0406
      6 C         138.3091  144.5473  162.9591 C.ar    1  UNL1        0.0395
      7 C         138.0818  143.1216  162.5523 C.ar    1  UNL1        0.1311
      8 O         137.4562  142.8111  161.2248 O.3     1  UNL1       -0.5058
      9 C         138.4800  142.0063  163.4729 C.ar    1  UNL1        0.0307
     10 C         139.1056  142.3168  164.8004 C.ar    1  UNL1        0.0406
     11 H         137.2074  143.5078  160.6497 H       1  UNL1        0.2922
     12 C         140.7201  141.8501  168.2991 C.ar    1  UNL1        0.1160
     13 C         142.1811  142.0517  168.5726 C.ar    1  UNL1        0.0254
     14 C         142.7722  141.5871  169.8706 C.ar    1  UNL1        0.0399
     15 C         141.9024  140.9208  170.8950 C.ar    1  UNL1        0.1528
     16 O         142.4935  140.4562  172.1930 O.3     1  UNL1       -0.5039
     17 C         140.4414  140.7192  170.6215 C.ar    1  UNL1        0.1354
     18 N         139.8503  141.1839  169.3235 N.ar    1  UNL1       -0.2376
     19 H         143.4062  140.5821  172.3638 H       1  UNL1        0.2923
     20 C         138.2953  139.2163  166.2756 C.3     1  UNL1        0.0774
     21 C         139.5640  139.9348  165.9232 C.2     1  UNL1        0.1766
     22 O         140.7991  139.1537  165.5850 O.2     1  UNL1       -0.2912
     23 C         138.2527  140.5806  163.0661 C.3     1  UNL1        0.1023
     24 N         139.3991  139.7504  162.5697 N.3     1  UNL1       -0.2689
     25 C         140.7260  140.2698  162.1010 C.3     1  UNL1        0.0724
     26 C         141.5669  139.0953  161.6964 C.3     1  UNL1        0.0188
     27 C         140.7597  137.8500  161.9151 C.3     1  UNL1        0.0188
     28 C         139.4200  138.2548  162.4548 C.3     1  UNL1        0.0724
@<TRIPOS>BOND
     1    20    21    1
     2    21    22    2
     3    21     1    1
     4     1     2   ar
     5     2    12    1
     6    12    13   ar
     7    13    14   ar
     8    14    15   ar
     9    15    16    1
    10    15    17   ar
    11    17    18   ar
    12     2     3   ar
    13     3     4   ar
    14     4     5   ar
    15     5     6   ar
    16     6     7   ar
    17     7     8    1
    18     7     9   ar
    19     9    23    1
    20    23    24    1
    21    24    25    1
    22    25    26    1
    23    26    27    1
    24    27    28    1
    25     9    10   ar
    26    10     1   ar
    27    18    12   ar
    28    10     4   ar
    29    28    24    1
    30    16    19    1
    31     8    11    1
@<TRIPOS>MOLECULE
*****
 28 31 0 0 0
SMALL
GASTEIGER

@<TRIPOS>ATOM
      1 C         140.6839  139.6772  165.5471 C.ar    1  UNL1        0.0735
      2 C         141.4755  140.4321  166.5734 C.ar    1  UNL1        0.1655
      3 O         142.9176  140.3999  166.1622 O.2     1  UNL1       -0.4519
      4 C         143.0174  139.6251  164.8817 C.ar    1  UNL1        0.1454
      5 C         144.1869  139.2685  164.0128 C.ar    1  UNL1        0.0406
      6 C         143.9759  138.4653  162.7637 C.ar    1  UNL1        0.0395
      7 C         142.5953  138.0186  162.3835 C.ar    1  UNL1        0.1311
      8 O         142.3843  137.2153  161.1344 O.3     1  UNL1       -0.5058
      9 C         141.4258  138.3751  163.2525 C.ar    1  UNL1        0.0307
     10 C         141.6368  139.1783  164.5015 C.ar    1  UNL1        0.0406
     11 H         143.1149  136.9926  160.5916 H       1  UNL1        0.2922
     12 C         140.9221  141.1018  167.7963 C.ar    1  UNL1        0.1160
     13 C         140.9745  142.5955  167.9220 C.ar    1  UNL1        0.0254
     14 C         140.4211  143.2651  169.1449 C.ar    1  UNL1        0.0399
     15 C         139.8153  142.4410  170.2420 C.ar    1  UNL1        0.1528
     16 O         139.2619  143.1106  171.4648 O.3     1  UNL1       -0.5039
     17 C         139.7629  140.9472  170.1162 C.ar    1  UNL1        0.1354
     18 N         140.3163  140.2776  168.8934 N.ar    1  UNL1       -0.2376
     19 H         139.2947  144.0437  171.5434 H       1  UNL1        0.2923
     20 C         138.2785  140.5339  165.0671 C.3     1  UNL1        0.0774
     21 C         139.1999  139.4592  165.5634 C.2     1  UNL1        0.1766
     22 O         138.6372  138.1667  166.0759 O.2     1  UNL1       -0.2912
     23 C         140.0452  137.9284  162.8723 C.3     1  UNL1        0.1023
     24 N         139.1781  138.8112  162.0246 N.3     1  UNL1       -0.2689
     25 C         137.7714  138.5158  161.5957 C.3     1  UNL1        0.0724
     26 C         137.2893  139.6665  160.7629 C.3     1  UNL1        0.0188
     27 C         138.3981  140.6731  160.6771 C.3     1  UNL1        0.0188
     28 C         139.5654  140.1445  161.4568 C.3     1  UNL1        0.0724
@<TRIPOS>BOND
     1    20    21    1
     2    21    22    2
     3    21     1    1
     4     1     2   ar
     5     2    12    1
     6    12    13   ar
     7    13    14   ar
     8    14    15   ar
     9    15    16    1
    10    15    17   ar
    11    17    18   ar
    12     2     3   ar
    13     3     4   ar
    14     4     5   ar
    15     5     6   ar
    16     6     7   ar
    17     7     8    1
    18     7     9   ar
    19     9    23    1
    20    23    24    1
    21    24    25    1
    22    25    26    1
    23    26    27    1
    24    27    28    1
    25     9    10   ar
    26    10     1   ar
    27    18    12   ar
    28    10     4   ar
    29    28    24    1
    30    16    19    1
    31     8    11    1
@<TRIPOS>MOLECULE
*****
 28 31 0 0 0
SMALL
GASTEIGER

@<TRIPOS>ATOM
      1 C         141.5878  142.9503  165.5094 C.ar    1  UNL1        0.0735
      2 C         140.4774  142.9955  166.5168 C.ar    1  UNL1        0.1655
      3 O         139.3604  143.8130  165.9390 O.2     1  UNL1       -0.4519
      4 C         139.7805  144.2732  164.5745 C.ar    1  UNL1        0.1454
      5 C         139.0873  145.1088  163.5395 C.ar    1  UNL1        0.0406
      6 C         139.7708  145.4112  162.2390 C.ar    1  UNL1        0.0395
      7 C         141.1475  144.8780  161.9735 C.ar    1  UNL1        0.1311
      8 O         141.8310  145.1805  160.6730 O.3     1  UNL1       -0.5058
      9 C         141.8407  144.0424  163.0085 C.ar    1  UNL1        0.0307
     10 C         141.1572  143.7400  164.3090 C.ar    1  UNL1        0.0406
     11 H         141.3980  145.7025  160.0264 H       1  UNL1        0.2922
     12 C         140.4830  142.3384  167.8652 C.ar    1  UNL1        0.1160
     13 C         140.1786  140.8747  167.9875 C.ar    1  UNL1        0.0254
     14 C         140.1842  140.2177  169.3360 C.ar    1  UNL1        0.0399
     15 C         140.4941  141.0243  170.5620 C.ar    1  UNL1        0.1528
     16 O         140.4997  140.3672  171.9105 O.3     1  UNL1       -0.5039
     17 C         140.7985  142.4879  170.4397 C.ar    1  UNL1        0.1354
     18 N         140.7929  143.1450  169.0913 N.ar    1  UNL1       -0.2376
     19 H         140.3096  139.4529  171.9869 H       1  UNL1        0.2923
     20 C         142.9716  140.7514  165.5056 C.3     1  UNL1        0.0774
     21 C         142.8989  142.2402  165.6736 C.2     1  UNL1        0.1766
     22 O         144.1372  143.0188  166.0056 O.2     1  UNL1       -0.2912
     23 C         143.2173  143.5093  162.7430 C.3     1  UNL1        0.1023
     24 N         143.3952  142.1034  162.2513 N.3     1  UNL1       -0.2689
     25 C         144.6834  141.3354  162.2234 C.3     1  UNL1        0.0724
     26 C         144.4005  139.9760  161.6559 C.3     1  UNL1        0.0188
     27 C         142.9374  139.9038  161.3330 C.3     1  UNL1        0.0188
     28 C         142.3161  141.2186  161.7009 C.3     1  UNL1        0.0724
@<TRIPOS>BOND
     1    20    21    1
     2    21    22    2
     3    21     1    1
     4     1     2   ar
     5     2    12    1
     6    12    13   ar
     7    13    14   ar
     8    14    15   ar
     9    15    16    1
    10    15    17   ar
    11    17    18   ar
    12     2     3   ar
    13     3     4   ar
    14     4     5   ar
    15     5     6   ar
    16     6     7   ar
    17     7     8    1
    18     7     9   ar
    19     9    23    1
    20    23    24    1
    21    24    25    1
    22    25    26    1
    23    26    27    1
    24    27    28    1
    25     9    10   ar
    26    10     1   ar
    27    18    12   ar
    28    10     4   ar
    29    28    24    1
    30    16    19    1
    31     8    11    1
@<TRIPOS>MOLECULE
*****
 28 31 0 0 0
SMALL
GASTEIGER

@<TRIPOS>ATOM
      1 C         139.8423  142.2866  165.4026 C.ar    1  UNL1        0.0735
      2 C         140.3694  141.5228  166.5811 C.ar    1  UNL1        0.1655
      3 O         140.0447  140.0728  166.3765 O.2     1  UNL1       -0.4519
      4 C         139.3168  139.9404  165.0716 C.ar    1  UNL1        0.1454
      5 C         138.7518  138.7507  164.3537 C.ar    1  UNL1        0.0406
      6 C         138.0617  138.9293  163.0339 C.ar    1  UNL1        0.0395
      7 C         137.9366  140.2976  162.4321 C.ar    1  UNL1        0.1311
      8 O         137.2464  140.4761  161.1122 O.3     1  UNL1       -0.5058
      9 C         138.5016  141.4872  163.1500 C.ar    1  UNL1        0.0307
     10 C         139.1917  141.3086  164.4697 C.ar    1  UNL1        0.0406
     11 H         136.8935  139.7330  160.6638 H       1  UNL1        0.2922
     12 C         141.0941  142.1066  167.7576 C.ar    1  UNL1        0.1160
     13 C         140.3667  142.9990  168.7190 C.ar    1  UNL1        0.0254
     14 C         141.0914  143.5828  169.8955 C.ar    1  UNL1        0.0399
     15 C         142.5434  143.2741  170.1105 C.ar    1  UNL1        0.1528
     16 O         143.2681  143.8579  171.2870 O.3     1  UNL1       -0.5039
     17 C         143.2708  142.3817  169.1490 C.ar    1  UNL1        0.1354
     18 N         142.5461  141.7979  167.9726 N.ar    1  UNL1       -0.2376
     19 H         142.8137  144.4153  171.8876 H       1  UNL1        0.2923
     20 C         138.8066  144.6628  165.5799 C.3     1  UNL1        0.0774
     21 C         139.9472  143.7683  165.1938 C.2     1  UNL1        0.1766
     22 O         141.1926  144.3555  164.5988 O.2     1  UNL1       -0.2912
     23 C         138.3765  142.8555  162.5481 C.3     1  UNL1        0.1023
     24 N         139.5307  143.4543  161.8004 N.3     1  UNL1       -0.2689
     25 C         139.7180  144.9089  161.4856 C.3     1  UNL1        0.0724
     26 C         141.0034  145.0573  160.7268 C.3     1  UNL1        0.0188
     27 C         141.6106  143.6943  160.5726 C.3     1  UNL1        0.0188
     28 C         140.7005  142.7037  161.2361 C.3     1  UNL1        0.0724
@<TRIPOS>BOND
     1    20    21    1
     2    21    22    2
     3    21     1    1
     4     1     2   ar
     5     2    12    1
     6    12    13   ar
     7    13    14   ar
     8    14    15   ar
     9    15    16    1
    10    15    17   ar
    11    17    18   ar
    12     2     3   ar
    13     3     4   ar
    14     4     5   ar
    15     5     6   ar
    16     6     7   ar
    17     7     8    1
    18     7     9   ar
    19     9    23    1
    20    23    24    1
    21    24    25    1
    22    25    26    1
    23    26    27    1
    24    27    28    1
    25     9    10   ar
    26    10     1   ar
    27    18    12   ar
    28    10     4   ar
    29    28    24    1
    30    16    19    1
    31     8    11    1
@<TRIPOS>MOLECULE
*****
 28 31 0 0 0
SMALL
GASTEIGER

@<TRIPOS>ATOM
      1 C         142.7544  140.5749  165.8223 C.ar    1  UNL1        0.0735
      2 C         142.8865  141.7475  166.7484 C.ar    1  UNL1        0.1655
      3 O         143.7477  142.7748  166.0754 O.2     1  UNL1       -0.4519
      4 C         144.1479  142.2371  164.7335 C.ar    1  UNL1        0.1454
      5 C         144.9920  142.8099  163.6338 C.ar    1  UNL1        0.0406
      6 C         145.2222  142.0231  162.3777 C.ar    1  UNL1        0.0395
      7 C         144.6083  140.6634  162.2213 C.ar    1  UNL1        0.1311
      8 O         144.8385  139.8766  160.9651 O.3     1  UNL1       -0.5058
      9 C         143.7642  140.0906  163.3210 C.ar    1  UNL1        0.0307
     10 C         143.5340  140.8775  164.5771 C.ar    1  UNL1        0.0406
     11 H         145.3658  140.2344  160.2781 H       1  UNL1        0.2922
     12 C         142.2662  141.8711  168.1085 C.ar    1  UNL1        0.1160
     13 C         140.9796  142.6226  168.2806 C.ar    1  UNL1        0.0254
     14 C         140.3593  142.7462  169.6408 C.ar    1  UNL1        0.0399
     15 C         141.0257  142.1183  170.8288 C.ar    1  UNL1        0.1528
     16 O         140.4055  142.2418  172.1890 O.3     1  UNL1       -0.5039
     17 C         142.3124  141.3667  170.6567 C.ar    1  UNL1        0.1354
     18 N         142.9326  141.2431  169.2966 N.ar    1  UNL1       -0.2376
     19 H         139.6017  142.7113  172.2965 H       1  UNL1        0.2923
     20 C         140.4818  139.3663  166.1754 C.3     1  UNL1        0.0774
     21 C         141.9789  139.3199  166.0939 C.2     1  UNL1        0.1766
     22 O         142.7004  138.0187  166.2840 O.2     1  UNL1       -0.2912
     23 C         143.1503  138.7310  163.1646 C.3     1  UNL1        0.1023
     24 N         141.6888  138.5991  162.8540 N.3     1  UNL1       -0.2689
     25 C         140.8031  139.6784  162.3056 C.3     1  UNL1        0.0724
     26 C         139.4232  139.1112  162.1499 C.3     1  UNL1        0.0188
     27 C         139.4561  137.6813  162.6021 C.3     1  UNL1        0.0188
     28 C         140.8562  137.3648  163.0372 C.3     1  UNL1        0.0724
@<TRIPOS>BOND
     1    20    21    1
     2    21    22    2
     3    21     1    1
     4     1     2   ar
     5     2    12    1
     6    12    13   ar
     7    13    14   ar
     8    14    15   ar
     9    15    16    1
    10    15    17   ar
    11    17    18   ar
    12     2     3   ar
    13     3     4   ar
    14     4     5   ar
    15     5     6   ar
    16     6     7   ar
    17     7     8    1
    18     7     9   ar
    19     9    23    1
    20    23    24    1
    21    24    25    1
    22    25    26    1
    23    26    27    1
    24    27    28    1
    25     9    10   ar
    26    10     1   ar
    27    18    12   ar
    28    10     4   ar
    29    28    24    1
    30    16    19    1
    31     8    11    1
@<TRIPOS>MOLECULE
*****
 28 31 0 0 0
SMALL
GASTEIGER

@<TRIPOS>ATOM
      1 C         141.8710  142.7976  165.4057 C.ar    1  UNL1        0.0735
      2 C         141.1918  142.3846  166.6777 C.ar    1  UNL1        0.1655
      3 O         139.7445  142.7653  166.5750 O.2     1  UNL1       -0.4519
      4 C         139.5294  143.4135  165.2395 C.ar    1  UNL1        0.1454
      5 C         138.3065  143.9882  164.5881 C.ar    1  UNL1        0.0406
      6 C         138.3979  144.5828  163.2141 C.ar    1  UNL1        0.0395
      7 C         139.7122  144.6027  162.4914 C.ar    1  UNL1        0.1311
      8 O         139.8036  145.1974  161.1173 O.3     1  UNL1       -0.5058
      9 C         140.9351  144.0281  163.1428 C.ar    1  UNL1        0.0307
     10 C         140.8436  143.4335  164.5168 C.ar    1  UNL1        0.0406
     11 H         139.0397  145.5564  160.7104 H       1  UNL1        0.2922
     12 C         141.8450  141.7095  167.8471 C.ar    1  UNL1        0.1160
     13 C         142.8588  142.4484  168.6694 C.ar    1  UNL1        0.0254
     14 C         143.5120  141.7734  169.8388 C.ar    1  UNL1        0.0399
     15 C         143.1515  140.3593  170.1859 C.ar    1  UNL1        0.1528
     16 O         143.8048  139.6842  171.3553 O.3     1  UNL1       -0.5039
     17 C         142.1378  139.6204  169.3636 C.ar    1  UNL1        0.1354
     18 N         141.4845  140.2955  168.1942 N.ar    1  UNL1       -0.2376
     19 H         144.4380  140.1458  171.8690 H       1  UNL1        0.2923
     20 C         143.8087  141.2869  164.5608 C.3     1  UNL1        0.0774
     21 C         143.3229  142.6079  165.0797 C.2     1  UNL1        0.1766
     22 O         144.2889  143.7390  165.2726 O.2     1  UNL1       -0.2912
     23 C         142.2494  144.0480  162.4201 C.3     1  UNL1        0.1023
     24 N         142.6378  142.8986  161.5381 N.3     1  UNL1       -0.2689
     25 C         143.8628  142.8238  160.6756 C.3     1  UNL1        0.0724
     26 C         143.8515  141.5010  159.9682 C.3     1  UNL1        0.0188
     27 C         142.6196  140.7583  160.3936 C.3     1  UNL1        0.0188
     28 C         141.8695  141.6220  161.3638 C.3     1  UNL1        0.0724
@<TRIPOS>BOND
     1    20    21    1
     2    21    22    2
     3    21     1    1
     4     1     2   ar
     5     2    12    1
     6    12    13   ar
     7    13    14   ar
     8    14    15   ar
     9    15    16    1
    10    15    17   ar
    11    17    18   ar
    12     2     3   ar
    13     3     4   ar
    14     4     5   ar
    15     5     6   ar
    16     6     7   ar
    17     7     8    1
    18     7     9   ar
    19     9    23    1
    20    23    24    1
    21    24    25    1
    22    25    26    1
    23    26    27    1
    24    27    28    1
    25     9    10   ar
    26    10     1   ar
    27    18    12   ar
    28    10     4   ar
    29    28    24    1
    30    16    19    1
    31     8    11    1
@<TRIPOS>MOLECULE
*****
 28 31 0 0 0
SMALL
GASTEIGER

@<TRIPOS>ATOM
      1 C         140.5500  140.5766  165.1567 C.ar    1  UNL1        0.0735
      2 C         140.3580  139.6513  166.3216 C.ar    1  UNL1        0.1655
      3 O         139.6765  138.4121  165.8217 O.2     1  UNL1       -0.4519
      4 C         139.4473  138.5716  164.3479 C.ar    1  UNL1        0.1454
      5 C         138.8167  137.6715  163.3270 C.ar    1  UNL1        0.0406
      6 C         138.7260  138.1092  161.8952 C.ar    1  UNL1        0.0395
      7 C         139.2659  139.4470  161.4842 C.ar    1  UNL1        0.1311
      8 O         139.1751  139.8846  160.0523 O.3     1  UNL1       -0.5058
      9 C         139.8964  140.3471  162.5051 C.ar    1  UNL1        0.0307
     10 C         139.9871  139.9094  163.9369 C.ar    1  UNL1        0.0406
     11 H         138.7813  139.3224  159.4146 H       1  UNL1        0.2922
     12 C         140.7745  139.9183  167.7377 C.ar    1  UNL1        0.1160
     13 C         139.7479  140.3028  168.7615 C.ar    1  UNL1        0.0254
     14 C         140.1643  140.5697  170.1776 C.ar    1  UNL1        0.0399
     15 C         141.6073  140.4522  170.5698 C.ar    1  UNL1        0.1528
     16 O         142.0237  140.7192  171.9859 O.3     1  UNL1       -0.5039
     17 C         142.6339  140.0677  169.5460 C.ar    1  UNL1        0.1354
     18 N         142.2175  139.8007  168.1299 N.ar    1  UNL1       -0.2376
     19 H         141.3825  140.9594  172.6255 H       1  UNL1        0.2923
     20 C         140.4576  143.0890  165.8126 C.3     1  UNL1        0.0774
     21 C         141.1921  141.9315  165.2035 C.2     1  UNL1        0.1766
     22 O         142.5685  142.1289  164.6411 O.2     1  UNL1       -0.2912
     23 C         140.4363  141.6848  162.0941 C.3     1  UNL1        0.1023
     24 N         139.6492  142.9301  162.3765 N.3     1  UNL1       -0.2689
     25 C         138.2132  142.9871  162.8062 C.3     1  UNL1        0.0724
     26 C         137.8364  144.4294  162.9740 C.3     1  UNL1        0.0188
     27 C         139.0397  145.2637  162.6480 C.3     1  UNL1        0.0188
     28 C         140.1600  144.3372  162.2787 C.3     1  UNL1        0.0724
@<TRIPOS>BOND
     1    20    21    1
     2    21    22    2
     3    21     1    1
     4     1     2   ar
     5     2    12    1
     6    12    13   ar
     7    13    14   ar
     8    14    15   ar
     9    15    16    1
    10    15    17   ar
    11    17    18   ar
    12     2     3   ar
    13     3     4   ar
    14     4     5   ar
    15     5     6   ar
    16     6     7   ar
    17     7     8    1
    18     7     9   ar
    19     9    23    1
    20    23    24    1
    21    24    25    1
    22    25    26    1
    23    26    27    1
    24    27    28    1
    25     9    10   ar
    26    10     1   ar
    27    18    12   ar
    28    10     4   ar
    29    28    24    1
    30    16    19    1
    31     8    11    1
@<TRIPOS>MOLECULE
*****
 28 31 0 0 0
SMALL
GASTEIGER

@<TRIPOS>ATOM
      1 C         141.0903  141.6731  165.3616 C.ar    1  UNL1        0.0735
      2 C         140.9813  142.1203  166.7892 C.ar    1  UNL1        0.1655
      3 O         140.0369  143.2845  166.8393 O.2     1  UNL1       -0.4519
      4 C         139.5621  143.5568  165.4427 C.ar    1  UNL1        0.1454
      5 C         138.6212  144.5830  164.8846 C.ar    1  UNL1        0.0406
      6 C         138.3313  144.6131  163.4132 C.ar    1  UNL1        0.0395
      7 C         138.9824  143.6172  162.4999 C.ar    1  UNL1        0.1311
      8 O         138.6924  143.6474  161.0285 O.3     1  UNL1       -0.5058
      9 C         139.9234  142.5910  163.0580 C.ar    1  UNL1        0.0307
     10 C         140.2132  142.5608  164.5294 C.ar    1  UNL1        0.0406
     11 H         138.1046  144.2884  160.6798 H       1  UNL1        0.2922
     12 C         141.6920  141.5104  167.9609 C.ar    1  UNL1        0.1160
     13 C         141.3544  140.1165  168.4003 C.ar    1  UNL1        0.0254
     14 C         142.0651  139.5066  169.5720 C.ar    1  UNL1        0.0399
     15 C         143.1133  140.2907  170.3044 C.ar    1  UNL1        0.1528
     16 O         143.8240  139.6808  171.4762 O.3     1  UNL1       -0.5039
     17 C         143.4509  141.6846  169.8651 C.ar    1  UNL1        0.1354
     18 N         142.7402  142.2945  168.6934 N.ar    1  UNL1       -0.2376
     19 H         143.6131  138.8100  171.7506 H       1  UNL1        0.2923
     20 C         143.4016  140.7292  164.6424 C.3     1  UNL1        0.0774
     21 C         141.9292  140.5374  164.8551 C.2     1  UNL1        0.1766
     22 O         141.2957  139.2099  164.5612 O.2     1  UNL1       -0.2912
     23 C         140.5744  141.5950  162.1447 C.3     1  UNL1        0.1023
     24 N         141.9397  141.8692  161.5872 N.3     1  UNL1       -0.2689
     25 C         142.7455  140.9383  160.7303 C.3     1  UNL1        0.0724
     26 C         144.0427  141.6163  160.4022 C.3     1  UNL1        0.0188
     27 C         144.0386  142.9662  161.0562 C.3     1  UNL1        0.0188
     28 C         142.7390  143.1226  161.7886 C.3     1  UNL1        0.0724
@<TRIPOS>BOND
     1    20    21    1
     2    21    22    2
     3    21     1    1
     4     1     2   ar
     5     2    12    1
     6    12    13   ar
     7    13    14   ar
     8    14    15   ar
     9    15    16    1
    10    15    17   ar
    11    17    18   ar
    12     2     3   ar
    13     3     4   ar
    14     4     5   ar
    15     5     6   ar
    16     6     7   ar
    17     7     8    1
    18     7     9   ar
    19     9    23    1
    20    23    24    1
    21    24    25    1
    22    25    26    1
    23    26    27    1
    24    27    28    1
    25     9    10   ar
    26    10     1   ar
    27    18    12   ar
    28    10     4   ar
    29    28    24    1
    30    16    19    1
    31     8    11    1
