@<TRIPOS>MOLECULE
*****
 35 39 0 0 0
SMALL
GASTEIGER

@<TRIPOS>ATOM
      1 C         142.0412  139.6798  157.9170 C.2     1  UNL1        0.3047
      2 O         142.6162  141.0344  157.6268 O.2     1  UNL1       -0.2647
      3 N         140.8665  139.5456  158.8400 N.am    1  UNL1       -0.2647
      4 C         140.0460  138.3995  159.3528 C.3     1  UNL1        0.1391
      5 C         139.2051  139.3560  160.1454 C.3     1  UNL1        0.2052
      6 C         140.0257  140.5022  159.6325 C.3     1  UNL1        0.1391
      7 C         143.0707  136.1494  156.6750 C.ar    1  UNL1        0.2501
      8 N         144.0574  137.0124  155.9459 N.ar    1  UNL1       -0.1068
      9 N         143.7919  138.4399  156.3224 N.ar    1  UNL1       -0.1021
     10 C         142.6411  138.4592  157.2842 C.ar    1  UNL1        0.3043
     11 O         142.1953  137.0436  157.5021 O.2     1  UNL1       -0.4122
     12 C         142.7864  131.6654  156.4249 C.ar    1  UNL1        0.1387
     13 C         143.7780  132.3035  157.3519 C.ar    1  UNL1        0.0371
     14 C         143.8728  133.7982  157.4353 C.ar    1  UNL1        0.0078
     15 C         142.9759  134.6548  156.5916 C.ar    1  UNL1        0.0553
     16 C         141.9843  134.0167  155.6646 C.ar    1  UNL1        0.0078
     17 C         141.8895  132.5220  155.5812 C.ar    1  UNL1        0.0371
     18 C         143.2722  129.3204  157.4324 C.3     1  UNL1        0.2525
     19 O         142.6916  130.1707  156.3415 O.3     1  UNL1       -0.4714
     20 O         138.0304  139.2219  161.0683 O.3     1  UNL1       -0.4756
     21 C         138.2409  139.2116  162.5535 C.ar    1  UNL1        0.1385
     22 C         138.8279  138.0026  163.2196 C.ar    1  UNL1        0.0366
     23 C         139.0383  137.9924  164.7047 C.ar    1  UNL1        0.0002
     24 C         138.6617  139.1912  165.5238 C.ar    1  UNL1       -0.0059
     25 C         138.0747  140.4002  164.8578 C.ar    1  UNL1        0.0002
     26 C         137.8643  140.4105  163.3726 C.ar    1  UNL1        0.0366
     27 C         138.8721  139.1810  167.0089 C.3     1  UNL1        0.0992
     28 N         139.5090  140.3593  167.6843 N.3     1  UNL1       -0.2669
     29 C         140.3259  141.4241  167.0144 C.3     1  UNL1        0.0749
     30 C         140.7626  142.4025  168.0641 C.3     1  UNL1        0.0456
     31 C         140.2156  141.9423  169.3828 C.3     1  UNL1        0.1044
     32 C         140.9063  143.1623  169.9166 C.3     1  UNL1        0.0308
     33 O         139.8130  141.7372  170.8132 O.3     1  UNL1       -0.3853
     34 C         139.4409  140.6795  169.1481 C.3     1  UNL1        0.0996
     35 H         140.1754  142.4540  171.3571 H       1  UNL1        0.2103
@<TRIPOS>BOND
     1    18    19    1
     2    19    12    1
     3    12    13   ar
     4    13    14   ar
     5    14    15   ar
     6    15     7    1
     7     7     8   ar
     8     8     9   ar
     9     9    10   ar
    10    10     1    1
    11     1     2    2
    12     1     3   am
    13     3     4    1
    14     4     5    1
    15     5    20    1
    16    20    21    1
    17    21    22   ar
    18    22    23   ar
    19    23    24   ar
    20    24    27    1
    21    27    28    1
    22    28    29    1
    23    29    30    1
    24    30    31    1
    25    31    32    1
    26    31    33    1
    27    31    34    1
    28    24    25   ar
    29    25    26   ar
    30     5     6    1
    31    10    11   ar
    32    15    16   ar
    33    16    17   ar
    34    17    12   ar
    35    11     7   ar
    36     6     3    1
    37    26    21   ar
    38    34    28    1
    39    33    35    1
@<TRIPOS>MOLECULE
*****
 35 39 0 0 0
SMALL
GASTEIGER

@<TRIPOS>ATOM
      1 C         141.8719  138.5673  157.9192 C.2     1  UNL1        0.3047
      2 O         140.4724  138.8366  157.4513 O.2     1  UNL1       -0.2647
      3 N         142.4454  139.3533  159.0608 N.am    1  UNL1       -0.2647
      4 C         143.7594  139.3682  159.7840 C.3     1  UNL1        0.1391
      5 C         143.2564  140.4649  160.6753 C.3     1  UNL1        0.2052
      6 C         141.9424  140.4499  159.9521 C.3     1  UNL1        0.1391
      7 C         143.6170  135.3583  156.6067 C.ar    1  UNL1        0.2501
      8 N         144.3207  136.4172  155.8107 N.ar    1  UNL1       -0.1068
      9 N         143.7526  137.7482  156.2055 N.ar    1  UNL1       -0.1021
     10 C         142.6979  137.5119  157.2455 C.ar    1  UNL1        0.3043
     11 O         142.6140  136.0349  157.4934 O.2     1  UNL1       -0.4122
     12 C         144.3807  130.9297  156.3751 C.ar    1  UNL1        0.1387
     13 C         144.7798  131.6965  157.6009 C.ar    1  UNL1        0.0371
     14 C         144.5252  133.1727  157.6781 C.ar    1  UNL1        0.0078
     15 C         143.8716  133.8821  156.5295 C.ar    1  UNL1        0.0553
     16 C         143.4726  133.1153  155.3036 C.ar    1  UNL1        0.0078
     17 C         143.7272  131.6391  155.2264 C.ar    1  UNL1        0.0371
     18 C         143.5161  128.5164  155.9524 C.3     1  UNL1        0.2525
     19 O         144.6353  129.4535  156.2979 O.3     1  UNL1       -0.4714
     20 O         143.8299  141.2509  161.8169 O.3     1  UNL1       -0.4756
     21 C         143.5937  140.8034  163.2291 C.ar    1  UNL1        0.1385
     22 C         143.4813  141.8176  164.3284 C.ar    1  UNL1        0.0366
     23 C         143.2451  141.3702  165.7404 C.ar    1  UNL1        0.0002
     24 C         143.1214  139.9083  166.0532 C.ar    1  UNL1       -0.0059
     25 C         143.2339  138.8941  164.9539 C.ar    1  UNL1        0.0002
     26 C         143.4700  139.3416  163.5418 C.ar    1  UNL1        0.0366
     27 C         142.8853  139.4609  167.4653 C.3     1  UNL1        0.0992
     28 N         141.5582  139.7094  168.1188 N.3     1  UNL1       -0.2669
     29 C         140.2507  139.9093  167.4113 C.3     1  UNL1        0.0749
     30 C         139.1900  140.1250  168.4496 C.3     1  UNL1        0.0456
     31 C         139.8419  140.0584  169.7989 C.3     1  UNL1        0.1044
     32 C         138.4538  140.3125  170.3077 C.3     1  UNL1        0.0308
     33 O         140.2035  140.0449  171.2547 O.3     1  UNL1       -0.3853
     34 C         141.3055  139.8015  169.5945 C.3     1  UNL1        0.0996
     35 H         139.4074  140.1986  171.7871 H       1  UNL1        0.2103
@<TRIPOS>BOND
     1    18    19    1
     2    19    12    1
     3    12    13   ar
     4    13    14   ar
     5    14    15   ar
     6    15     7    1
     7     7     8   ar
     8     8     9   ar
     9     9    10   ar
    10    10     1    1
    11     1     2    2
    12     1     3   am
    13     3     4    1
    14     4     5    1
    15     5    20    1
    16    20    21    1
    17    21    22   ar
    18    22    23   ar
    19    23    24   ar
    20    24    27    1
    21    27    28    1
    22    28    29    1
    23    29    30    1
    24    30    31    1
    25    31    32    1
    26    31    33    1
    27    31    34    1
    28    24    25   ar
    29    25    26   ar
    30     5     6    1
    31    10    11   ar
    32    15    16   ar
    33    16    17   ar
    34    17    12   ar
    35    11     7   ar
    36     6     3    1
    37    26    21   ar
    38    34    28    1
    39    33    35    1
@<TRIPOS>MOLECULE
*****
 35 39 0 0 0
SMALL
GASTEIGER

@<TRIPOS>ATOM
      1 C         139.1825  143.3186  160.4537 C.2     1  UNL1        0.3047
      2 O         139.6791  144.6050  159.8634 O.2     1  UNL1       -0.2647
      3 N         138.9859  142.1176  159.5768 N.am    1  UNL1       -0.2647
      4 C         138.5217  140.7083  159.7967 C.3     1  UNL1        0.1391
      5 C         138.7079  140.4192  158.3366 C.3     1  UNL1        0.2052
      6 C         139.1721  141.8285  158.1167 C.3     1  UNL1        0.1391
      7 C         138.9699  142.5975  164.2616 C.ar    1  UNL1        0.2501
      8 N         137.8716  143.6056  164.0958 N.ar    1  UNL1       -0.1068
      9 N         137.8176  143.9984  162.6491 N.ar    1  UNL1       -0.1021
     10 C         138.8824  143.2331  161.9209 C.ar    1  UNL1        0.3043
     11 O         139.5946  142.3673  162.9175 O.2     1  UNL1       -0.4122
     12 C         140.1784  140.6124  168.1151 C.ar    1  UNL1        0.1387
     13 C         139.3457  139.8657  167.1157 C.ar    1  UNL1        0.0371
     14 C         138.9429  140.5274  165.8312 C.ar    1  UNL1        0.0078
     15 C         139.3728  141.9358  165.5461 C.ar    1  UNL1        0.0553
     16 C         140.2055  142.6826  166.5455 C.ar    1  UNL1        0.0078
     17 C         140.6083  142.0209  167.8300 C.ar    1  UNL1        0.0371
     18 C         142.0104  139.5535  169.6226 C.3     1  UNL1        0.2525
     19 O         140.5813  139.9508  169.3996 O.3     1  UNL1       -0.4714
     20 O         138.5113  139.2182  157.4597 O.3     1  UNL1       -0.4756
     21 C         139.6815  138.3499  157.1037 C.ar    1  UNL1        0.1385
     22 C         139.6356  137.4981  155.8699 C.ar    1  UNL1        0.0366
     23 C         140.8058  136.6298  155.5139 C.ar    1  UNL1        0.0002
     24 C         142.0220  136.6133  156.3918 C.ar    1  UNL1       -0.0059
     25 C         142.0679  137.4650  157.6256 C.ar    1  UNL1        0.0002
     26 C         140.8977  138.3334  157.9816 C.ar    1  UNL1        0.0366
     27 C         143.1921  135.7450  156.0359 C.3     1  UNL1        0.0992
     28 N         143.1250  134.2644  156.2665 N.3     1  UNL1       -0.2669
     29 C         142.2143  133.3028  155.5621 C.3     1  UNL1        0.0749
     30 C         142.4831  131.9295  156.1022 C.3     1  UNL1        0.0456
     31 C         143.5599  132.0423  157.1404 C.3     1  UNL1        0.1044
     32 C         143.3805  130.5579  157.2611 C.3     1  UNL1        0.0308
     33 O         144.5993  131.8447  158.2038 O.3     1  UNL1       -0.3853
     34 C         143.9566  133.4853  157.2419 C.3     1  UNL1        0.0996
     35 H         144.6467  130.9048  158.4389 H       1  UNL1        0.2103
@<TRIPOS>BOND
     1    18    19    1
     2    19    12    1
     3    12    13   ar
     4    13    14   ar
     5    14    15   ar
     6    15     7    1
     7     7     8   ar
     8     8     9   ar
     9     9    10   ar
    10    10     1    1
    11     1     2    2
    12     1     3   am
    13     3     4    1
    14     4     5    1
    15     5    20    1
    16    20    21    1
    17    21    22   ar
    18    22    23   ar
    19    23    24   ar
    20    24    27    1
    21    27    28    1
    22    28    29    1
    23    29    30    1
    24    30    31    1
    25    31    32    1
    26    31    33    1
    27    31    34    1
    28    24    25   ar
    29    25    26   ar
    30     5     6    1
    31    10    11   ar
    32    15    16   ar
    33    16    17   ar
    34    17    12   ar
    35    11     7   ar
    36     6     3    1
    37    26    21   ar
    38    34    28    1
    39    33    35    1
@<TRIPOS>MOLECULE
*****
 35 39 0 0 0
SMALL
GASTEIGER

@<TRIPOS>ATOM
      1 C         139.1834  138.5371  161.3176 C.2     1  UNL1        0.3047
      2 O         137.7058  138.7873  161.2547 O.2     1  UNL1       -0.2647
      3 N         139.9914  138.4953  160.0545 N.am    1  UNL1       -0.2647
      4 C         141.4394  138.2784  159.7283 C.3     1  UNL1        0.1391
      5 C         141.1341  138.4361  158.2681 C.3     1  UNL1        0.2052
      6 C         139.6861  138.6529  158.5943 C.3     1  UNL1        0.1391
      7 C         140.6315  138.6752  164.9161 C.ar    1  UNL1        0.2501
      8 N         141.1355  137.3408  164.4519 N.ar    1  UNL1       -0.1068
      9 N         140.6544  137.1267  163.0473 N.ar    1  UNL1       -0.1021
     10 C         139.8531  138.3287  162.6435 C.ar    1  UNL1        0.3043
     11 O         139.8390  139.2857  163.7985 O.2     1  UNL1       -0.4122
     12 C         141.3680  140.5223  168.9529 C.ar    1  UNL1        0.1387
     13 C         139.9690  140.4086  168.4241 C.ar    1  UNL1        0.0371
     14 C         139.7235  139.7929  167.0785 C.ar    1  UNL1        0.0078
     15 C         140.8770  139.2909  166.2617 C.ar    1  UNL1        0.0553
     16 C         142.2761  139.4046  166.7905 C.ar    1  UNL1        0.0078
     17 C         142.5216  140.0203  168.1361 C.ar    1  UNL1        0.0371
     18 C         142.2132  142.5094  170.3976 C.3     1  UNL1        0.2525
     19 O         141.6135  141.1380  170.2985 O.3     1  UNL1       -0.4714
     20 O         141.9420  138.3943  157.0051 O.3     1  UNL1       -0.4756
     21 C         142.1420  137.0934  156.2854 C.ar    1  UNL1        0.1385
     22 C         143.5290  136.6061  155.9882 C.ar    1  UNL1        0.0366
     23 C         143.7289  135.3053  155.2686 C.ar    1  UNL1        0.0002
     24 C         142.5416  134.4918  154.8460 C.ar    1  UNL1       -0.0059
     25 C         141.1545  134.9791  155.1432 C.ar    1  UNL1        0.0002
     26 C         140.9546  136.2799  155.8629 C.ar    1  UNL1        0.0366
     27 C         142.7415  133.1910  154.1264 C.3     1  UNL1        0.0992
     28 N         143.2670  131.9972  154.8670 N.3     1  UNL1       -0.2669
     29 C         144.0376  130.8576  154.2690 C.3     1  UNL1        0.0749
     30 C         144.3611  129.8894  155.3681 C.3     1  UNL1        0.0456
     31 C         143.7904  130.4306  156.6454 C.3     1  UNL1        0.1044
     32 C         144.3728  129.1867  157.2484 C.3     1  UNL1        0.0308
     33 O         143.3415  130.7117  158.0488 O.3     1  UNL1       -0.3853
     34 C         143.1143  131.7333  156.3357 C.3     1  UNL1        0.0996
     35 H         143.6305  129.9918  158.6311 H       1  UNL1        0.2103
@<TRIPOS>BOND
     1    18    19    1
     2    19    12    1
     3    12    13   ar
     4    13    14   ar
     5    14    15   ar
     6    15     7    1
     7     7     8   ar
     8     8     9   ar
     9     9    10   ar
    10    10     1    1
    11     1     2    2
    12     1     3   am
    13     3     4    1
    14     4     5    1
    15     5    20    1
    16    20    21    1
    17    21    22   ar
    18    22    23   ar
    19    23    24   ar
    20    24    27    1
    21    27    28    1
    22    28    29    1
    23    29    30    1
    24    30    31    1
    25    31    32    1
    26    31    33    1
    27    31    34    1
    28    24    25   ar
    29    25    26   ar
    30     5     6    1
    31    10    11   ar
    32    15    16   ar
    33    16    17   ar
    34    17    12   ar
    35    11     7   ar
    36     6     3    1
    37    26    21   ar
    38    34    28    1
    39    33    35    1
@<TRIPOS>MOLECULE
*****
 35 39 0 0 0
SMALL
GASTEIGER

@<TRIPOS>ATOM
      1 C         139.5770  142.7473  160.0420 C.2     1  UNL1        0.3047
      2 O         140.6367  143.7888  159.8363 O.2     1  UNL1       -0.2647
      3 N         139.0973  141.9262  158.8820 N.am    1  UNL1       -0.2647
      4 C         138.0887  140.8305  158.7033 C.3     1  UNL1        0.1391
      5 C         138.4189  140.7650  157.2415 C.3     1  UNL1        0.2052
      6 C         139.4275  141.8607  157.4202 C.3     1  UNL1        0.1391
      7 C         138.7419  141.8576  163.7266 C.ar    1  UNL1        0.2501
      8 N         137.4673  142.5183  163.2919 N.ar    1  UNL1       -0.1068
      9 N         137.6250  142.9321  161.8587 N.ar    1  UNL1       -0.1021
     10 C         138.9970  142.5270  161.4077 C.ar    1  UNL1        0.3043
     11 O         139.6873  141.8630  162.5620 O.2     1  UNL1       -0.4122
     12 C         139.5818  140.1577  167.8076 C.ar    1  UNL1        0.1387
     13 C         140.1968  141.4629  167.3977 C.ar    1  UNL1        0.0371
     14 C         139.9169  142.0296  166.0374 C.ar    1  UNL1        0.0078
     15 C         139.0218  141.2910  165.0869 C.ar    1  UNL1        0.0553
     16 C         138.4068  139.9858  165.4969 C.ar    1  UNL1        0.0078
     17 C         138.6868  139.4191  166.8572 C.ar    1  UNL1        0.0371
     18 C         140.7728  140.3197  170.1110 C.3     1  UNL1        0.2525
     19 O         139.8618  139.5911  169.1680 O.3     1  UNL1       -0.4714
     20 O         137.9392  139.9439  156.0815 O.3     1  UNL1       -0.4756
     21 C         138.7174  138.7388  155.6429 C.ar    1  UNL1        0.1385
     22 C         139.6612  138.0677  156.5961 C.ar    1  UNL1        0.0366
     23 C         140.4394  136.8627  156.1574 C.ar    1  UNL1        0.0002
     24 C         140.2736  136.3288  154.7655 C.ar    1  UNL1       -0.0059
     25 C         139.3298  136.9999  153.8123 C.ar    1  UNL1        0.0002
     26 C         138.5516  138.2049  154.2509 C.ar    1  UNL1        0.0366
     27 C         141.0518  135.1238  154.3268 C.3     1  UNL1        0.0992
     28 N         142.1395  134.5743  155.2014 N.3     1  UNL1       -0.2669
     29 C         143.5161  135.1480  155.3620 C.3     1  UNL1        0.0749
     30 C         144.2690  134.2829  156.3288 C.3     1  UNL1        0.0456
     31 C         143.3577  133.1744  156.7656 C.3     1  UNL1        0.1044
     32 C         144.5348  132.7438  157.5897 C.3     1  UNL1        0.0308
     33 O         142.6925  131.9758  157.3748 O.3     1  UNL1       -0.3853
     34 C         142.0416  133.3545  156.0689 C.3     1  UNL1        0.0996
     35 H         143.3134  131.5303  157.9723 H       1  UNL1        0.2103
@<TRIPOS>BOND
     1    18    19    1
     2    19    12    1
     3    12    13   ar
     4    13    14   ar
     5    14    15   ar
     6    15     7    1
     7     7     8   ar
     8     8     9   ar
     9     9    10   ar
    10    10     1    1
    11     1     2    2
    12     1     3   am
    13     3     4    1
    14     4     5    1
    15     5    20    1
    16    20    21    1
    17    21    22   ar
    18    22    23   ar
    19    23    24   ar
    20    24    27    1
    21    27    28    1
    22    28    29    1
    23    29    30    1
    24    30    31    1
    25    31    32    1
    26    31    33    1
    27    31    34    1
    28    24    25   ar
    29    25    26   ar
    30     5     6    1
    31    10    11   ar
    32    15    16   ar
    33    16    17   ar
    34    17    12   ar
    35    11     7   ar
    36     6     3    1
    37    26    21   ar
    38    34    28    1
    39    33    35    1
@<TRIPOS>MOLECULE
*****
 35 39 0 0 0
SMALL
GASTEIGER

@<TRIPOS>ATOM
      1 C         140.6067  139.4476  159.9816 C.2     1  UNL1        0.3047
      2 O         139.6820  140.5751  159.6297 O.2     1  UNL1       -0.2647
      3 N         141.5137  138.8677  158.9371 N.am    1  UNL1       -0.2647
      4 C         142.5397  137.7738  158.9123 C.3     1  UNL1        0.1391
      5 C         142.7964  138.0475  157.4599 C.3     1  UNL1        0.2052
      6 C         141.7703  139.1414  157.4848 C.3     1  UNL1        0.1391
      7 C         141.0634  138.6430  163.7512 C.ar    1  UNL1        0.2501
      8 N         140.2397  137.4724  163.3026 N.ar    1  UNL1       -0.1068
      9 N         139.9684  137.6313  161.8359 N.ar    1  UNL1       -0.1021
     10 C         140.6243  138.9002  161.3780 C.ar    1  UNL1        0.3043
     11 O         141.3011  139.5254  162.5617 O.2     1  UNL1       -0.4122
     12 C         142.5586  139.3786  167.9312 C.ar    1  UNL1        0.1387
     13 C         143.3879  138.5830  166.9672 C.ar    1  UNL1        0.0371
     14 C         142.8894  138.3378  165.5738 C.ar    1  UNL1        0.0078
     15 C         141.5618  138.8882  165.1445 C.ar    1  UNL1        0.0553
     16 C         140.7326  139.6838  166.1085 C.ar    1  UNL1        0.0078
     17 C         141.2310  139.9289  167.5019 C.ar    1  UNL1        0.0371
     18 C         142.2121  140.3887  170.2997 C.3     1  UNL1        0.2525
     19 O         143.0571  139.6237  169.3246 O.3     1  UNL1       -0.4714
     20 O         143.7033  137.4676  156.4154 O.3     1  UNL1       -0.4756
     21 C         143.4092  136.1169  155.8329 C.ar    1  UNL1        0.1385
     22 C         143.7836  134.8765  156.5884 C.ar    1  UNL1        0.0366
     23 C         143.4895  133.5259  156.0059 C.ar    1  UNL1        0.0002
     24 C         142.8208  133.4158  154.6676 C.ar    1  UNL1       -0.0059
     25 C         142.4464  134.6563  153.9121 C.ar    1  UNL1        0.0002
     26 C         142.7405  136.0069  154.4946 C.ar    1  UNL1        0.0366
     27 C         142.5267  132.0652  154.0851 C.3     1  UNL1        0.0992
     28 N         143.0473  130.8292  154.7567 N.3     1  UNL1       -0.2669
     29 C         142.3552  130.0564  155.8402 C.3     1  UNL1        0.0749
     30 C         143.2316  128.8985  156.2159 C.3     1  UNL1        0.0456
     31 C         144.4653  128.9557  155.3647 C.3     1  UNL1        0.1044
     32 C         144.8541  127.7204  156.1217 C.3     1  UNL1        0.0308
     33 O         145.7804  128.7545  154.6718 O.3     1  UNL1       -0.3853
     34 C         144.3515  130.1489  154.4629 C.3     1  UNL1        0.0996
     35 H         146.2180  127.9668  155.0309 H       1  UNL1        0.2103
@<TRIPOS>BOND
     1    18    19    1
     2    19    12    1
     3    12    13   ar
     4    13    14   ar
     5    14    15   ar
     6    15     7    1
     7     7     8   ar
     8     8     9   ar
     9     9    10   ar
    10    10     1    1
    11     1     2    2
    12     1     3   am
    13     3     4    1
    14     4     5    1
    15     5    20    1
    16    20    21    1
    17    21    22   ar
    18    22    23   ar
    19    23    24   ar
    20    24    27    1
    21    27    28    1
    22    28    29    1
    23    29    30    1
    24    30    31    1
    25    31    32    1
    26    31    33    1
    27    31    34    1
    28    24    25   ar
    29    25    26   ar
    30     5     6    1
    31    10    11   ar
    32    15    16   ar
    33    16    17   ar
    34    17    12   ar
    35    11     7   ar
    36     6     3    1
    37    26    21   ar
    38    34    28    1
    39    33    35    1
@<TRIPOS>MOLECULE
*****
 35 39 0 0 0
SMALL
GASTEIGER

@<TRIPOS>ATOM
      1 C         139.6774  143.6936  160.0125 C.2     1  UNL1        0.3047
      2 O         139.7838  144.8749  159.0942 O.2     1  UNL1       -0.2647
      3 N         139.4746  142.3194  159.4463 N.am    1  UNL1       -0.2647
      4 C         139.3270  140.9443  160.0269 C.3     1  UNL1        0.1391
      5 C         139.1878  140.3761  158.6457 C.3     1  UNL1        0.2052
      6 C         139.3353  141.7513  158.0651 C.3     1  UNL1        0.1391
      7 C         140.4027  143.6095  163.8246 C.ar    1  UNL1        0.2501
      8 N         139.4411  144.7574  163.7378 N.ar    1  UNL1       -0.1068
      9 N         139.0523  144.9287  162.2992 N.ar    1  UNL1       -0.1021
     10 C         139.7737  143.8866  161.4969 C.ar    1  UNL1        0.3043
     11 O         140.6083  143.0713  162.4396 O.2     1  UNL1       -0.4122
     12 C         142.3323  142.0535  167.5804 C.ar    1  UNL1        0.1387
     13 C         143.1600  142.2790  166.3499 C.ar    1  UNL1        0.0371
     14 C         142.5168  142.7977  165.0980 C.ar    1  UNL1        0.0078
     15 C         141.0459  143.0908  165.0765 C.ar    1  UNL1        0.0553
     16 C         140.2182  142.8654  166.3069 C.ar    1  UNL1        0.0078
     17 C         140.8614  142.3467  167.5589 C.ar    1  UNL1        0.0371
     18 C         143.7670  142.4606  169.7077 C.3     1  UNL1        0.2525
     19 O         142.9755  141.5349  168.8323 O.3     1  UNL1       -0.4714
     20 O         138.9850  139.0020  158.0796 O.3     1  UNL1       -0.4756
     21 C         140.1629  138.2082  157.5971 C.ar    1  UNL1        0.1385
     22 C         141.4922  138.3498  158.2774 C.ar    1  UNL1        0.0366
     23 C         142.6700  137.5561  157.7950 C.ar    1  UNL1        0.0002
     24 C         142.5185  136.6208  156.6321 C.ar    1  UNL1       -0.0059
     25 C         141.1892  136.4792  155.9517 C.ar    1  UNL1        0.0002
     26 C         140.0114  137.2730  156.4342 C.ar    1  UNL1        0.0366
     27 C         143.6963  135.8271  156.1496 C.3     1  UNL1        0.0992
     28 N         143.7093  134.3351  156.3042 N.3     1  UNL1       -0.2669
     29 C         144.0535  133.5812  157.5544 C.3     1  UNL1        0.0749
     30 C         143.9373  132.1153  157.2586 C.3     1  UNL1        0.0456
     31 C         143.5214  131.9632  155.8255 C.3     1  UNL1        0.1044
     32 C         143.5779  130.4952  156.1291 C.3     1  UNL1        0.0308
     33 O         143.1173  131.5041  154.4558 O.3     1  UNL1       -0.3853
     34 C         143.3805  133.3351  155.2356 C.3     1  UNL1        0.0996
     35 H         143.0907  130.5347  154.4344 H       1  UNL1        0.2103
@<TRIPOS>BOND
     1    18    19    1
     2    19    12    1
     3    12    13   ar
     4    13    14   ar
     5    14    15   ar
     6    15     7    1
     7     7     8   ar
     8     8     9   ar
     9     9    10   ar
    10    10     1    1
    11     1     2    2
    12     1     3   am
    13     3     4    1
    14     4     5    1
    15     5    20    1
    16    20    21    1
    17    21    22   ar
    18    22    23   ar
    19    23    24   ar
    20    24    27    1
    21    27    28    1
    22    28    29    1
    23    29    30    1
    24    30    31    1
    25    31    32    1
    26    31    33    1
    27    31    34    1
    28    24    25   ar
    29    25    26   ar
    30     5     6    1
    31    10    11   ar
    32    15    16   ar
    33    16    17   ar
    34    17    12   ar
    35    11     7   ar
    36     6     3    1
    37    26    21   ar
    38    34    28    1
    39    33    35    1
@<TRIPOS>MOLECULE
*****
 35 39 0 0 0
SMALL
GASTEIGER

@<TRIPOS>ATOM
      1 C         142.4965  144.0808  160.4115 C.2     1  UNL1        0.3047
      2 O         141.5309  145.1367  159.9616 O.2     1  UNL1       -0.2647
      3 N         143.0887  143.1313  159.4126 N.am    1  UNL1       -0.2647
      4 C         144.0541  141.9854  159.4815 C.3     1  UNL1        0.1391
      5 C         143.9260  141.7885  157.9999 C.3     1  UNL1        0.2052
      6 C         142.9606  142.9344  157.9311 C.3     1  UNL1        0.1391
      7 C         142.8101  143.4353  164.2261 C.ar    1  UNL1        0.2501
      8 N         144.0798  144.1861  163.9538 N.ar    1  UNL1       -0.1068
      9 N         144.1169  144.5193  162.4918 N.ar    1  UNL1       -0.1021
     10 C         142.8701  143.9744  161.8604 C.ar    1  UNL1        0.3043
     11 O         142.0625  143.3045  162.9322 O.2     1  UNL1       -0.4122
     12 C         141.4777  141.8530  168.2225 C.ar    1  UNL1        0.1387
     13 C         142.9405  141.9744  167.9137 C.ar    1  UNL1        0.0371
     14 C         143.3847  142.5018  166.5816 C.ar    1  UNL1        0.0078
     15 C         142.3660  142.9078  165.5582 C.ar    1  UNL1        0.0553
     16 C         140.9031  142.7865  165.8670 C.ar    1  UNL1        0.0078
     17 C         140.4590  142.2591  167.1991 C.ar    1  UNL1        0.0371
     18 C         139.5903  141.4144  169.9531 C.3     1  UNL1        0.2525
     19 O         141.0336  141.3256  169.5546 O.3     1  UNL1       -0.4714
     20 O         144.5181  140.8390  157.0011 O.3     1  UNL1       -0.4756
     21 C         143.8452  139.5275  156.7226 C.ar    1  UNL1        0.1385
     22 C         142.8946  138.9444  157.7257 C.ar    1  UNL1        0.0366
     23 C         142.2219  137.6330  157.4472 C.ar    1  UNL1        0.0002
     24 C         142.4997  136.9047  156.1656 C.ar    1  UNL1       -0.0059
     25 C         143.4503  137.4878  155.1626 C.ar    1  UNL1        0.0002
     26 C         144.1232  138.7993  155.4410 C.ar    1  UNL1        0.0366
     27 C         141.8270  135.5933  155.8872 C.3     1  UNL1        0.0992
     28 N         142.4809  134.3106  156.3081 N.3     1  UNL1       -0.2669
     29 C         143.6864  134.1841  157.1917 C.3     1  UNL1        0.0749
     30 C         143.9948  132.7246  157.3490 C.3     1  UNL1        0.0456
     31 C         142.9798  131.9491  156.5626 C.3     1  UNL1        0.1044
     32 C         143.7363  130.7545  157.0634 C.3     1  UNL1        0.0308
     33 O         142.1229  130.9237  155.8809 O.3     1  UNL1       -0.3853
     34 C         142.0441  132.9293  155.9193 C.3     1  UNL1        0.0996
     35 H         142.4569  130.0361  156.0847 H       1  UNL1        0.2103
@<TRIPOS>BOND
     1    18    19    1
     2    19    12    1
     3    12    13   ar
     4    13    14   ar
     5    14    15   ar
     6    15     7    1
     7     7     8   ar
     8     8     9   ar
     9     9    10   ar
    10    10     1    1
    11     1     2    2
    12     1     3   am
    13     3     4    1
    14     4     5    1
    15     5    20    1
    16    20    21    1
    17    21    22   ar
    18    22    23   ar
    19    23    24   ar
    20    24    27    1
    21    27    28    1
    22    28    29    1
    23    29    30    1
    24    30    31    1
    25    31    32    1
    26    31    33    1
    27    31    34    1
    28    24    25   ar
    29    25    26   ar
    30     5     6    1
    31    10    11   ar
    32    15    16   ar
    33    16    17   ar
    34    17    12   ar
    35    11     7   ar
    36     6     3    1
    37    26    21   ar
    38    34    28    1
    39    33    35    1
@<TRIPOS>MOLECULE
*****
 35 39 0 0 0
SMALL
GASTEIGER

@<TRIPOS>ATOM
      1 C         142.7569  140.1085  157.3355 C.2     1  UNL1        0.3047
      2 O         143.4396  141.4415  157.2527 O.2     1  UNL1       -0.2647
      3 N         141.4786  139.9672  158.1075 N.am    1  UNL1       -0.2647
      4 C         140.5392  138.8365  158.4058 C.3     1  UNL1        0.1391
      5 C         139.6707  139.7674  159.1991 C.3     1  UNL1        0.2052
      6 C         140.6101  140.8980  158.9008 C.3     1  UNL1        0.1391
      7 C         143.6559  136.6826  155.7479 C.ar    1  UNL1        0.2501
      8 N         144.8826  137.4829  155.4242 N.ar    1  UNL1       -0.1068
      9 N         144.6952  138.8637  155.9795 N.ar    1  UNL1       -0.1021
     10 C         143.3526  138.9167  156.6465 C.ar    1  UNL1        0.3043
     11 O         142.7104  137.5687  156.5033 O.2     1  UNL1       -0.4122
     12 C         142.9386  132.3789  154.6463 C.ar    1  UNL1        0.1387
     13 C         142.3578  133.4756  153.8038 C.ar    1  UNL1        0.0371
     14 C         142.5969  134.9101  154.1710 C.ar    1  UNL1        0.0078
     15 C         143.4168  135.2480  155.3807 C.ar    1  UNL1        0.0553
     16 C         143.9976  134.1513  156.2232 C.ar    1  UNL1        0.0078
     17 C         143.7585  132.7168  155.8560 C.ar    1  UNL1        0.0371
     18 C         141.8139  130.0885  155.1354 C.3     1  UNL1        0.2525
     19 O         142.6995  130.9443  154.2791 O.3     1  UNL1       -0.4714
     20 O         138.3924  139.6261  159.9710 O.3     1  UNL1       -0.4756
     21 C         138.4323  139.4079  161.4546 C.ar    1  UNL1        0.1385
     22 C         138.8341  138.0720  162.0057 C.ar    1  UNL1        0.0366
     23 C         138.8739  137.8538  163.4892 C.ar    1  UNL1        0.0002
     24 C         138.5121  138.9717  164.4216 C.ar    1  UNL1       -0.0059
     25 C         138.1103  140.3076  163.8705 C.ar    1  UNL1        0.0002
     26 C         138.0704  140.5258  162.3869 C.ar    1  UNL1        0.0366
     27 C         138.5519  138.7536  165.9051 C.3     1  UNL1        0.0992
     28 N         139.6013  139.4319  166.7350 N.3     1  UNL1       -0.2669
     29 C         139.4101  139.9907  168.1138 C.3     1  UNL1        0.0749
     30 C         140.7167  140.5747  168.5627 C.3     1  UNL1        0.0456
     31 C         141.7156  140.3769  167.4613 C.3     1  UNL1        0.1044
     32 C         142.6548  141.0722  168.4018 C.3     1  UNL1        0.0308
     33 O         142.9109  140.3245  166.5564 O.3     1  UNL1       -0.3853
     34 C         141.0263  139.6706  166.3317 C.3     1  UNL1        0.0996
     35 H         143.6677  140.7428  166.9959 H       1  UNL1        0.2103
@<TRIPOS>BOND
     1    18    19    1
     2    19    12    1
     3    12    13   ar
     4    13    14   ar
     5    14    15   ar
     6    15     7    1
     7     7     8   ar
     8     8     9   ar
     9     9    10   ar
    10    10     1    1
    11     1     2    2
    12     1     3   am
    13     3     4    1
    14     4     5    1
    15     5    20    1
    16    20    21    1
    17    21    22   ar
    18    22    23   ar
    19    23    24   ar
    20    24    27    1
    21    27    28    1
    22    28    29    1
    23    29    30    1
    24    30    31    1
    25    31    32    1
    26    31    33    1
    27    31    34    1
    28    24    25   ar
    29    25    26   ar
    30     5     6    1
    31    10    11   ar
    32    15    16   ar
    33    16    17   ar
    34    17    12   ar
    35    11     7   ar
    36     6     3    1
    37    26    21   ar
    38    34    28    1
    39    33    35    1
