@<TRIPOS>MOLECULE
*****
 29 31 0 0 0
SMALL
GASTEIGER

@<TRIPOS>ATOM
      1 C         140.5273  143.1093  163.7132 C.ar    1  UNL1        0.1743
      2 N         141.3328  142.4404  162.6392 N.ar    1  UNL1       -0.2173
      3 C         141.7727  143.2205  161.4359 C.ar    1  UNL1        0.1834
      4 N         141.4071  144.6695  161.3067 N.ar    1  UNL1       -0.1885
      5 C         140.6016  145.3385  162.3808 C.ar    1  UNL1        0.2596
      6 O         140.2360  146.7875  162.2516 O.3     1  UNL1       -0.4898
      7 C         140.1617  144.5584  163.5840 C.ar    1  UNL1        0.2098
      8 O         139.3561  145.2273  164.6582 O.3     1  UNL1       -0.5007
      9 H         140.5108  147.2748  161.5000 H       1  UNL1        0.2938
     10 H         139.1278  146.1324  164.5775 H       1  UNL1        0.2924
     11 C         142.5782  142.5516  160.3618 C.ar    1  UNL1        0.1179
     12 C         142.4320  141.0781  160.1224 C.ar    1  UNL1        0.0337
     13 C         143.2375  140.4091  159.0484 C.ar    1  UNL1        0.0608
     14 CL        143.0913  138.9356  158.8090 Cl      1  UNL1       -0.0821
     15 C         144.1893  141.2138  158.2135 C.ar    1  UNL1        0.0321
     16 C         144.3355  142.6873  158.4529 C.ar    1  UNL1        0.0998
     17 N         143.5299  143.3562  159.5270 N.ar    1  UNL1       -0.2407
     18 N         139.8643  140.8497  164.8108 N.am    1  UNL1       -0.3012
     19 C         140.0873  142.3292  164.9166 C.2     1  UNL1        0.2668
     20 O         139.8704  143.0287  166.2256 O.2     1  UNL1       -0.2684
     21 H         140.0066  140.3906  163.9516 H       1  UNL1        0.1497
     22 C         138.0532  139.4627  166.0543 C.3     1  UNL1        0.0213
     23 C         139.4243  140.0696  166.0142 C.3     1  UNL1        0.0719
     24 C         140.3555  139.8965  167.1773 C.3     1  UNL1        0.0180
     25 C         139.8461  140.0672  168.5777 C.3     1  UNL1        0.0016
     26 C         140.7773  139.8941  169.7409 C.3     1  UNL1        0.0001
     27 C         142.2179  139.5503  169.5036 C.3     1  UNL1        0.0000
     28 C         142.7274  139.3796  168.1031 C.3     1  UNL1        0.0001
     29 C         141.7962  139.5527  166.9399 C.3     1  UNL1        0.0016
@<TRIPOS>BOND
     1    23    22    1
     2    23    18    1
     3    18    19   am
     4    19    20    2
     5    19     1    1
     6     1     2   ar
     7     2     3   ar
     8     3    11    1
     9    11    12   ar
    10    12    13   ar
    11    13    14    1
    12    13    15   ar
    13    15    16   ar
    14    16    17   ar
    15     3     4   ar
    16     4     5   ar
    17     5     6    1
    18     5     7   ar
    19     7     8    1
    20    23    24    1
    21    24    25    1
    22    25    26    1
    23    26    27    1
    24    27    28    1
    25    28    29    1
    26     7     1   ar
    27    29    24    1
    28    17    11   ar
    29    18    21    1
    30     6     9    1
    31     8    10    1
@<TRIPOS>MOLECULE
*****
 29 31 0 0 0
SMALL
GASTEIGER

@<TRIPOS>ATOM
      1 C         140.5775  143.1898  163.1648 C.ar    1  UNL1        0.1743
      2 N         140.1103  142.3857  161.9879 N.ar    1  UNL1       -0.2173
      3 C         139.5823  143.0797  160.7675 C.ar    1  UNL1        0.1834
      4 N         139.5215  144.5779  160.7240 N.ar    1  UNL1       -0.1885
      5 C         139.9886  145.3819  161.9009 C.ar    1  UNL1        0.2596
      6 O         139.9278  146.8801  161.8574 O.3     1  UNL1       -0.4898
      7 C         140.5166  144.6879  163.1213 C.ar    1  UNL1        0.2098
      8 O         140.9839  145.4920  164.2983 O.3     1  UNL1       -0.5007
      9 H         139.5980  147.3136  161.0950 H       1  UNL1        0.2938
     10 H         140.9459  146.4278  164.2711 H       1  UNL1        0.2924
     11 C         139.1151  142.2756  159.5905 C.ar    1  UNL1        0.1179
     12 C         139.5772  140.8589  159.4191 C.ar    1  UNL1        0.0337
     13 C         139.1100  140.0548  158.2422 C.ar    1  UNL1        0.0608
     14 CL        139.5721  138.6381  158.0708 Cl      1  UNL1       -0.0821
     15 C         138.1807  140.6674  157.2366 C.ar    1  UNL1        0.0321
     16 C         137.7186  142.0841  157.4080 C.ar    1  UNL1        0.0998
     17 N         138.1858  142.8882  158.5850 N.ar    1  UNL1       -0.2407
     18 N         140.2968  141.4177  165.0440 N.am    1  UNL1       -0.3012
     19 C         141.1055  142.4957  164.3853 C.2     1  UNL1        0.2668
     20 O         142.4423  142.8798  164.9471 O.2     1  UNL1       -0.2684
     21 H         139.4195  141.1657  164.6752 H       1  UNL1        0.1497
     22 C         141.7404  139.5444  166.1196 C.3     1  UNL1        0.0213
     23 C         140.8249  140.7237  166.2645 C.3     1  UNL1        0.0719
     24 C         140.4374  141.2090  167.6299 C.3     1  UNL1        0.0180
     25 C         140.8133  142.5933  168.0685 C.3     1  UNL1        0.0016
     26 C         140.4258  143.0786  169.4339 C.3     1  UNL1        0.0001
     27 C         139.6623  142.1797  170.3606 C.3     1  UNL1        0.0000
     28 C         139.2863  140.7953  169.9220 C.3     1  UNL1        0.0001
     29 C         139.6738  140.3100  168.5566 C.3     1  UNL1        0.0016
@<TRIPOS>BOND
     1    23    22    1
     2    23    18    1
     3    18    19   am
     4    19    20    2
     5    19     1    1
     6     1     2   ar
     7     2     3   ar
     8     3    11    1
     9    11    12   ar
    10    12    13   ar
    11    13    14    1
    12    13    15   ar
    13    15    16   ar
    14    16    17   ar
    15     3     4   ar
    16     4     5   ar
    17     5     6    1
    18     5     7   ar
    19     7     8    1
    20    23    24    1
    21    24    25    1
    22    25    26    1
    23    26    27    1
    24    27    28    1
    25    28    29    1
    26     7     1   ar
    27    29    24    1
    28    17    11   ar
    29    18    21    1
    30     6     9    1
    31     8    10    1
@<TRIPOS>MOLECULE
*****
 29 31 0 0 0
SMALL
GASTEIGER

@<TRIPOS>ATOM
      1 C         140.2014  143.1672  163.2592 C.ar    1  UNL1        0.1743
      2 N         140.9736  142.5678  162.1215 N.ar    1  UNL1       -0.2173
      3 C         141.4602  143.4410  161.0032 C.ar    1  UNL1        0.1834
      4 N         141.1748  144.9134  161.0225 N.ar    1  UNL1       -0.1885
      5 C         140.4026  145.5127  162.1603 C.ar    1  UNL1        0.2596
      6 O         140.1171  146.9852  162.1797 O.3     1  UNL1       -0.4898
      7 C         139.9159  144.6396  163.2786 C.ar    1  UNL1        0.2098
      8 O         139.1437  145.2389  164.4165 O.3     1  UNL1       -0.5007
      9 H         140.4211  147.5306  161.4811 H       1  UNL1        0.2938
     10 H         138.9653  146.1587  164.4286 H       1  UNL1        0.2924
     11 C         142.2325  142.8417  159.8653 C.ar    1  UNL1        0.1179
     12 C         142.2676  141.3530  159.6845 C.ar    1  UNL1        0.0337
     13 C         143.0398  140.7537  158.5468 C.ar    1  UNL1        0.0608
     14 CL        143.0749  139.2650  158.3660 Cl      1  UNL1       -0.0821
     15 C         143.7769  141.6430  157.5898 C.ar    1  UNL1        0.0321
     16 C         143.7417  143.1317  157.7705 C.ar    1  UNL1        0.0998
     17 N         142.9695  143.7310  158.9084 N.ar    1  UNL1       -0.2407
     18 N         140.6714  141.3843  165.0897 N.am    1  UNL1       -0.3012
     19 C         139.7146  142.2940  164.3777 C.2     1  UNL1        0.2668
     20 O         138.2712  142.3307  164.7839 O.2     1  UNL1       -0.2684
     21 H         141.6188  141.3603  164.8231 H       1  UNL1        0.1497
     22 C         139.8253  139.0798  165.9402 C.3     1  UNL1        0.0213
     23 C         140.1846  140.5112  166.2082 C.3     1  UNL1        0.0719
     24 C         140.0572  141.0696  167.5945 C.3     1  UNL1        0.0180
     25 C         139.4245  140.2484  168.6786 C.3     1  UNL1        0.0016
     26 C         139.2971  140.8068  170.0650 C.3     1  UNL1        0.0001
     27 C         139.8024  142.1864  170.3672 C.3     1  UNL1        0.0000
     28 C         140.4352  143.0076  169.2831 C.3     1  UNL1        0.0001
     29 C         140.5626  142.4492  167.8968 C.3     1  UNL1        0.0016
@<TRIPOS>BOND
     1    23    22    1
     2    23    18    1
     3    18    19   am
     4    19    20    2
     5    19     1    1
     6     1     2   ar
     7     2     3   ar
     8     3    11    1
     9    11    12   ar
    10    12    13   ar
    11    13    14    1
    12    13    15   ar
    13    15    16   ar
    14    16    17   ar
    15     3     4   ar
    16     4     5   ar
    17     5     6    1
    18     5     7   ar
    19     7     8    1
    20    23    24    1
    21    24    25    1
    22    25    26    1
    23    26    27    1
    24    27    28    1
    25    28    29    1
    26     7     1   ar
    27    29    24    1
    28    17    11   ar
    29    18    21    1
    30     6     9    1
    31     8    10    1
@<TRIPOS>MOLECULE
*****
 29 31 0 0 0
SMALL
GASTEIGER

@<TRIPOS>ATOM
      1 C         142.1296  144.3771  161.8478 C.ar    1  UNL1        0.1743
      2 N         142.4099  144.2720  160.3780 N.ar    1  UNL1       -0.2173
      3 C         141.4691  144.8936  159.3888 C.ar    1  UNL1        0.1834
      4 N         140.2481  145.6203  159.8694 N.ar    1  UNL1       -0.1885
      5 C         139.9679  145.7254  161.3392 C.ar    1  UNL1        0.2596
      6 O         138.7468  146.4522  161.8198 O.3     1  UNL1       -0.4898
      7 C         140.9086  145.1038  162.3284 C.ar    1  UNL1        0.2098
      8 O         140.6284  145.2090  163.7983 O.3     1  UNL1       -0.5007
      9 H         138.1592  146.8405  161.2019 H       1  UNL1        0.2938
     10 H         139.8657  145.6629  164.0985 H       1  UNL1        0.2924
     11 C         141.7494  144.7885  157.9189 C.ar    1  UNL1        0.1179
     12 C         141.0926  145.7372  156.9605 C.ar    1  UNL1        0.0337
     13 C         141.3728  145.6321  155.4907 C.ar    1  UNL1        0.0608
     14 CL        140.7161  146.5809  154.5322 Cl      1  UNL1       -0.0821
     15 C         142.3098  144.5783  154.9792 C.ar    1  UNL1        0.0321
     16 C         142.9665  143.6295  155.9376 C.ar    1  UNL1        0.0998
     17 N         142.6863  143.7346  157.4075 N.ar    1  UNL1       -0.2407
     18 N         143.3514  142.2831  162.7819 N.am    1  UNL1       -0.3012
     19 C         143.0704  143.7555  162.8371 C.2     1  UNL1        0.2668
     20 O         143.7301  144.6063  163.8815 O.2     1  UNL1       -0.2684
     21 H         142.9184  141.7247  162.0963 H       1  UNL1        0.1497
     22 C         145.7742  141.7673  163.5655 C.3     1  UNL1        0.0213
     23 C         144.2922  141.6615  163.7711 C.3     1  UNL1        0.0719
     24 C         143.7509  140.9341  164.9661 C.3     1  UNL1        0.0180
     25 C         143.0875  141.6991  166.0727 C.3     1  UNL1        0.0016
     26 C         142.5462  140.9717  167.2676 C.3     1  UNL1        0.0001
     27 C         142.6682  139.4793  167.3559 C.3     1  UNL1        0.0000
     28 C         143.3316  138.7143  166.2493 C.3     1  UNL1        0.0001
     29 C         143.8729  139.4416  165.0543 C.3     1  UNL1        0.0016
@<TRIPOS>BOND
     1    23    22    1
     2    23    18    1
     3    18    19   am
     4    19    20    2
     5    19     1    1
     6     1     2   ar
     7     2     3   ar
     8     3    11    1
     9    11    12   ar
    10    12    13   ar
    11    13    14    1
    12    13    15   ar
    13    15    16   ar
    14    16    17   ar
    15     3     4   ar
    16     4     5   ar
    17     5     6    1
    18     5     7   ar
    19     7     8    1
    20    23    24    1
    21    24    25    1
    22    25    26    1
    23    26    27    1
    24    27    28    1
    25    28    29    1
    26     7     1   ar
    27    29    24    1
    28    17    11   ar
    29    18    21    1
    30     6     9    1
    31     8    10    1
@<TRIPOS>MOLECULE
*****
 29 31 0 0 0
SMALL
GASTEIGER

@<TRIPOS>ATOM
      1 C         140.1139  143.6632  161.8921 C.ar    1  UNL1        0.1743
      2 N         139.9420  142.2288  162.2958 N.ar    1  UNL1       -0.2173
      3 C         139.4161  141.8913  163.6594 C.ar    1  UNL1        0.1834
      4 N         139.0620  142.9882  164.6193 N.ar    1  UNL1       -0.1885
      5 C         139.2338  144.4226  164.2156 C.ar    1  UNL1        0.2596
      6 O         138.8797  145.5195  165.1755 O.3     1  UNL1       -0.4898
      7 C         139.7598  144.7601  162.8520 C.ar    1  UNL1        0.2098
      8 O         139.9317  146.1945  162.4483 O.3     1  UNL1       -0.5007
      9 H         138.5512  145.3087  166.0273 H       1  UNL1        0.2938
     10 H         139.7105  146.8797  163.0479 H       1  UNL1        0.2924
     11 C         139.2442  140.4569  164.0632 C.ar    1  UNL1        0.1179
     12 C         138.4965  140.1154  165.3179 C.ar    1  UNL1        0.0337
     13 C         138.3246  138.6810  165.7216 C.ar    1  UNL1        0.0608
     14 CL        137.5769  138.3395  166.9763 Cl      1  UNL1       -0.0821
     15 C         138.9005  137.5881  164.8707 C.ar    1  UNL1        0.0321
     16 C         139.6482  137.9296  163.6160 C.ar    1  UNL1        0.0998
     17 N         139.8200  139.3641  163.2122 N.ar    1  UNL1       -0.2407
     18 N         140.1253  143.2696  159.3240 N.am    1  UNL1       -0.3012
     19 C         140.6399  144.0007  160.5284 C.2     1  UNL1        0.2668
     20 O         141.6804  145.0693  160.3693 O.2     1  UNL1       -0.2684
     21 H         139.4423  142.5683  159.4285 H       1  UNL1        0.1497
     22 C         141.9373  143.0016  157.4815 C.3     1  UNL1        0.0213
     23 C         140.6512  143.6072  157.9603 C.3     1  UNL1        0.0719
     24 C         139.8911  144.5503  157.0756 C.3     1  UNL1        0.0180
     25 C         140.1738  146.0223  157.1303 C.3     1  UNL1        0.0016
     26 C         139.4137  146.9654  156.2456 C.3     1  UNL1        0.0001
     27 C         138.3708  146.4364  155.3061 C.3     1  UNL1        0.0000
     28 C         138.0881  144.9643  155.2514 C.3     1  UNL1        0.0001
     29 C         138.8482  144.0212  156.1361 C.3     1  UNL1        0.0016
@<TRIPOS>BOND
     1    23    22    1
     2    23    18    1
     3    18    19   am
     4    19    20    2
     5    19     1    1
     6     1     2   ar
     7     2     3   ar
     8     3    11    1
     9    11    12   ar
    10    12    13   ar
    11    13    14    1
    12    13    15   ar
    13    15    16   ar
    14    16    17   ar
    15     3     4   ar
    16     4     5   ar
    17     5     6    1
    18     5     7   ar
    19     7     8    1
    20    23    24    1
    21    24    25    1
    22    25    26    1
    23    26    27    1
    24    27    28    1
    25    28    29    1
    26     7     1   ar
    27    29    24    1
    28    17    11   ar
    29    18    21    1
    30     6     9    1
    31     8    10    1
@<TRIPOS>MOLECULE
*****
 29 31 0 0 0
SMALL
GASTEIGER

@<TRIPOS>ATOM
      1 C         140.4879  142.0705  162.9581 C.ar    1  UNL1        0.1743
      2 N         140.6126  142.6244  161.5697 N.ar    1  UNL1       -0.2173
      3 C         139.3954  142.7578  160.7034 C.ar    1  UNL1        0.1834
      4 N         138.0535  142.3372  161.2254 N.ar    1  UNL1       -0.1885
      5 C         137.9289  141.7832  162.6138 C.ar    1  UNL1        0.2596
      6 O         136.5870  141.3626  163.1358 O.3     1  UNL1       -0.4898
      7 C         139.1461  141.6499  163.4801 C.ar    1  UNL1        0.2098
      8 O         139.0215  141.0959  164.8685 O.3     1  UNL1       -0.5007
      9 H         135.8266  141.4459  162.5946 H       1  UNL1        0.2938
     10 H         138.1833  140.8332  165.1946 H       1  UNL1        0.2924
     11 C         139.5200  143.3117  159.3149 C.ar    1  UNL1        0.1179
     12 C         140.5211  144.3905  159.0249 C.ar    1  UNL1        0.0337
     13 C         140.6457  144.9445  157.6366 C.ar    1  UNL1        0.0608
     14 CL        141.6468  146.0232  157.3466 Cl      1  UNL1       -0.0821
     15 C         139.7692  144.4197  156.5382 C.ar    1  UNL1        0.0321
     16 C         138.7681  143.3409  156.8282 C.ar    1  UNL1        0.0998
     17 N         138.6435  142.7869  158.2166 N.ar    1  UNL1       -0.2407
     18 N         141.7894  142.6880  165.1202 N.am    1  UNL1       -0.3012
     19 C         141.7052  141.9371  163.8245 C.2     1  UNL1        0.2668
     20 O         142.8382  141.0529  163.3950 O.2     1  UNL1       -0.2684
     21 H         141.0458  143.2684  165.4021 H       1  UNL1        0.1497
     22 C         144.2850  143.2337  165.5936 C.3     1  UNL1        0.0213
     23 C         143.0066  142.5547  165.9866 C.3     1  UNL1        0.0719
     24 C         142.9454  141.7422  167.2461 C.3     1  UNL1        0.0180
     25 C         143.2899  142.3727  168.5628 C.3     1  UNL1        0.0016
     26 C         143.2286  141.5603  169.8223 C.3     1  UNL1        0.0001
     27 C         142.8229  140.1174  169.7650 C.3     1  UNL1        0.0000
     28 C         142.4784  139.4868  168.4482 C.3     1  UNL1        0.0001
     29 C         142.5397  140.2992  167.1888 C.3     1  UNL1        0.0016
@<TRIPOS>BOND
     1    23    22    1
     2    23    18    1
     3    18    19   am
     4    19    20    2
     5    19     1    1
     6     1     2   ar
     7     2     3   ar
     8     3    11    1
     9    11    12   ar
    10    12    13   ar
    11    13    14    1
    12    13    15   ar
    13    15    16   ar
    14    16    17   ar
    15     3     4   ar
    16     4     5   ar
    17     5     6    1
    18     5     7   ar
    19     7     8    1
    20    23    24    1
    21    24    25    1
    22    25    26    1
    23    26    27    1
    24    27    28    1
    25    28    29    1
    26     7     1   ar
    27    29    24    1
    28    17    11   ar
    29    18    21    1
    30     6     9    1
    31     8    10    1
@<TRIPOS>MOLECULE
*****
 29 31 0 0 0
SMALL
GASTEIGER

@<TRIPOS>ATOM
      1 C         141.4115  143.4197  163.1225 C.ar    1  UNL1        0.1743
      2 N         142.1079  142.9797  161.8690 N.ar    1  UNL1       -0.2173
      3 C         142.0832  143.8544  160.6508 C.ar    1  UNL1        0.1834
      4 N         141.3620  145.1692  160.6860 N.ar    1  UNL1       -0.1885
      5 C         140.6656  145.6093  161.9395 C.ar    1  UNL1        0.2596
      6 O         139.9445  146.9241  161.9748 O.3     1  UNL1       -0.4898
      7 C         140.6903  144.7345  163.1578 C.ar    1  UNL1        0.2098
      8 O         139.9939  145.1746  164.4113 O.3     1  UNL1       -0.5007
      9 H         139.9290  147.4705  161.2138 H       1  UNL1        0.2938
     10 H         139.5434  145.9959  164.4334 H       1  UNL1        0.2924
     11 C         142.7797  143.4144  159.3972 C.ar    1  UNL1        0.1179
     12 C         142.3093  143.9136  158.0632 C.ar    1  UNL1        0.0337
     13 C         143.0057  143.4736  156.8097 C.ar    1  UNL1        0.0608
     14 CL        142.5353  143.9729  155.4757 Cl      1  UNL1       -0.0821
     15 C         144.1725  142.5344  156.8901 C.ar    1  UNL1        0.0321
     16 C         144.6429  142.0351  158.2241 C.ar    1  UNL1        0.0998
     17 N         143.9464  142.4752  159.4777 N.ar    1  UNL1       -0.2407
     18 N         140.3586  142.6711  165.3766 N.am    1  UNL1       -0.3012
     19 C         141.4361  142.5450  164.3409 C.2     1  UNL1        0.2668
     20 O         142.5384  141.5442  164.5233 O.2     1  UNL1       -0.2684
     21 H         139.6351  143.3279  165.2569 H       1  UNL1        0.1497
     22 C         139.6544  140.4853  166.5919 C.3     1  UNL1        0.0213
     23 C         140.3833  141.7963  166.5950 C.3     1  UNL1        0.0719
     24 C         141.1368  142.2326  167.8164 C.3     1  UNL1        0.0180
     25 C         142.5665  141.8190  168.0031 C.3     1  UNL1        0.0016
     26 C         143.3201  142.2553  169.2245 C.3     1  UNL1        0.0001
     27 C         142.6439  143.1052  170.2591 C.3     1  UNL1        0.0000
     28 C         141.2142  143.5188  170.0724 C.3     1  UNL1        0.0001
     29 C         140.4606  143.0825  168.8510 C.3     1  UNL1        0.0016
@<TRIPOS>BOND
     1    23    22    1
     2    23    18    1
     3    18    19   am
     4    19    20    2
     5    19     1    1
     6     1     2   ar
     7     2     3   ar
     8     3    11    1
     9    11    12   ar
    10    12    13   ar
    11    13    14    1
    12    13    15   ar
    13    15    16   ar
    14    16    17   ar
    15     3     4   ar
    16     4     5   ar
    17     5     6    1
    18     5     7   ar
    19     7     8    1
    20    23    24    1
    21    24    25    1
    22    25    26    1
    23    26    27    1
    24    27    28    1
    25    28    29    1
    26     7     1   ar
    27    29    24    1
    28    17    11   ar
    29    18    21    1
    30     6     9    1
    31     8    10    1
@<TRIPOS>MOLECULE
*****
 29 31 0 0 0
SMALL
GASTEIGER

@<TRIPOS>ATOM
      1 C         141.5215  143.4486  162.5651 C.ar    1  UNL1        0.1743
      2 N         140.8510  142.7021  161.4502 N.ar    1  UNL1       -0.2173
      3 C         139.8816  143.4098  160.5504 C.ar    1  UNL1        0.1834
      4 N         139.5828  144.8639  160.7657 N.ar    1  UNL1       -0.1885
      5 C         140.2533  145.6103  161.8806 C.ar    1  UNL1        0.2596
      6 O         139.9545  147.0644  162.0959 O.3     1  UNL1       -0.4898
      7 C         141.2227  144.9027  162.7804 C.ar    1  UNL1        0.2098
      8 O         141.8933  145.6491  163.8954 O.3     1  UNL1       -0.5007
      9 H         139.3490  147.5065  161.5338 H       1  UNL1        0.2938
     10 H         141.7066  146.5574  164.0299 H       1  UNL1        0.2924
     11 C         139.2111  142.6634  159.4354 C.ar    1  UNL1        0.1179
     12 C         139.1974  143.2381  158.0499 C.ar    1  UNL1        0.0337
     13 C         138.5269  142.4917  156.9349 C.ar    1  UNL1        0.0608
     14 CL        138.5132  143.0664  155.5495 Cl      1  UNL1       -0.0821
     15 C         137.8699  141.1706  157.2054 C.ar    1  UNL1        0.0321
     16 C         137.8836  140.5958  158.5908 C.ar    1  UNL1        0.0998
     17 N         138.5542  141.3423  159.7059 N.ar    1  UNL1       -0.2407
     18 N         142.1389  141.4015  164.0410 N.am    1  UNL1       -0.3012
     19 C         142.4909  142.7409  163.4649 C.2     1  UNL1        0.2668
     20 O         143.8123  143.3728  163.7886 O.2     1  UNL1       -0.2684
     21 H         141.2717  140.9868  163.8286 H       1  UNL1        0.1497
     22 C         144.2148  139.8702  164.3514 C.3     1  UNL1        0.0213
     23 C         143.1084  140.6938  164.9408 C.3     1  UNL1        0.0719
     24 C         142.9713  140.8098  166.4300 C.3     1  UNL1        0.0180
     25 C         142.6922  139.5885  167.2549 C.3     1  UNL1        0.0016
     26 C         142.5552  139.7046  168.7441 C.3     1  UNL1        0.0001
     27 C         142.6971  141.0419  169.4084 C.3     1  UNL1        0.0000
     28 C         142.9762  142.2633  168.5835 C.3     1  UNL1        0.0001
     29 C         143.1133  142.1473  167.0943 C.3     1  UNL1        0.0016
@<TRIPOS>BOND
     1    23    22    1
     2    23    18    1
     3    18    19   am
     4    19    20    2
     5    19     1    1
     6     1     2   ar
     7     2     3   ar
     8     3    11    1
     9    11    12   ar
    10    12    13   ar
    11    13    14    1
    12    13    15   ar
    13    15    16   ar
    14    16    17   ar
    15     3     4   ar
    16     4     5   ar
    17     5     6    1
    18     5     7   ar
    19     7     8    1
    20    23    24    1
    21    24    25    1
    22    25    26    1
    23    26    27    1
    24    27    28    1
    25    28    29    1
    26     7     1   ar
    27    29    24    1
    28    17    11   ar
    29    18    21    1
    30     6     9    1
    31     8    10    1
@<TRIPOS>MOLECULE
*****
 29 31 0 0 0
SMALL
GASTEIGER

@<TRIPOS>ATOM
      1 C         142.8567  137.3986  157.7139 C.ar    1  UNL1        0.1743
      2 N         142.6463  135.9187  157.5892 N.ar    1  UNL1       -0.2173
      3 C         142.7797  135.2523  156.2521 C.ar    1  UNL1        0.1834
      4 N         143.1235  136.0658  155.0396 N.ar    1  UNL1       -0.1885
      5 C         143.3338  137.5457  155.1643 C.ar    1  UNL1        0.2596
      6 O         143.6775  138.3591  153.9518 O.3     1  UNL1       -0.4898
      7 C         143.2004  138.2121  156.5014 C.ar    1  UNL1        0.2098
      8 O         143.4107  139.6921  156.6261 O.3     1  UNL1       -0.5007
      9 H         143.7608  137.9428  153.1165 H       1  UNL1        0.2938
     10 H         143.6255  140.2003  155.8687 H       1  UNL1        0.2924
     11 C         142.5694  133.7723  156.1274 C.ar    1  UNL1        0.1179
     12 C         143.3808  132.8265  156.9623 C.ar    1  UNL1        0.0337
     13 C         143.1705  131.3466  156.8376 C.ar    1  UNL1        0.0608
     14 CL        143.9818  130.4008  157.6726 Cl      1  UNL1       -0.0821
     15 C         142.1488  130.8124  155.8780 C.ar    1  UNL1        0.0321
     16 C         141.3374  131.7582  155.0431 C.ar    1  UNL1        0.0998
     17 N         141.5477  133.2382  155.1678 N.ar    1  UNL1       -0.2407
     18 N         142.9577  137.2797  160.3073 N.am    1  UNL1       -0.3012
     19 C         142.7233  138.0652  159.0511 C.2     1  UNL1        0.2668
     20 O         142.3555  139.5171  159.1320 O.2     1  UNL1       -0.2684
     21 H         143.1991  136.3268  160.2542 H       1  UNL1        0.1497
     22 C         143.9788  138.7124  162.2191 C.3     1  UNL1        0.0213
     23 C         142.8243  137.9463  161.6445 C.3     1  UNL1        0.0719
     24 C         141.5365  137.8466  162.4070 C.3     1  UNL1        0.0180
     25 C         140.2277  138.0171  161.6943 C.3     1  UNL1        0.0016
     26 C         138.9398  137.9174  162.4568 C.3     1  UNL1        0.0001
     27 C         138.9607  137.6472  163.9321 C.3     1  UNL1        0.0000
     28 C         140.2695  137.4767  164.6449 C.3     1  UNL1        0.0001
     29 C         141.5574  137.5764  163.8824 C.3     1  UNL1        0.0016
@<TRIPOS>BOND
     1    23    22    1
     2    23    18    1
     3    18    19   am
     4    19    20    2
     5    19     1    1
     6     1     2   ar
     7     2     3   ar
     8     3    11    1
     9    11    12   ar
    10    12    13   ar
    11    13    14    1
    12    13    15   ar
    13    15    16   ar
    14    16    17   ar
    15     3     4   ar
    16     4     5   ar
    17     5     6    1
    18     5     7   ar
    19     7     8    1
    20    23    24    1
    21    24    25    1
    22    25    26    1
    23    26    27    1
    24    27    28    1
    25    28    29    1
    26     7     1   ar
    27    29    24    1
    28    17    11   ar
    29    18    21    1
    30     6     9    1
    31     8    10    1
