@<TRIPOS>MOLECULE
*****
 50 55 0 0 0
SMALL
GASTEIGER

@<TRIPOS>ATOM
      1 C         141.8599  142.1776  167.2887 C.ar    1  UNL1        0.1090
      2 C         143.1766  142.3027  167.9963 C.ar    1  UNL1        0.0405
      3 C         143.3147  141.8290  169.4128 C.ar    1  UNL1        0.1596
      4 F         144.6314  141.9541  170.1205 F       1  UNL1       -0.2025
      5 C         142.1362  141.2302  170.1217 C.ar    1  UNL1        0.1316
      6 N         140.8196  141.1050  169.4141 N.ar    1  UNL1       -0.2073
      7 C         140.6814  141.5787  167.9976 C.ar    1  UNL1        0.2341
      8 N         140.5078  143.4280  165.4561 N.am    1  UNL1       -0.3024
      9 C         141.7218  142.6513  165.8722 C.2     1  UNL1        0.2504
     10 O         142.7976  142.3483  164.8717 O.2     1  UNL1       -0.2700
     11 H         139.8018  143.6268  166.1127 H       1  UNL1        0.1497
     12 C         140.0934  144.8492  161.2066 C.3     1  UNL1        0.0720
     13 C         140.8742  145.6618  162.1964 C.3     1  UNL1        0.0213
     14 C         141.0124  145.1881  163.6129 C.3     1  UNL1        0.0213
     15 C         140.3696  143.9017  164.0395 C.3     1  UNL1        0.0720
     16 C         139.5888  143.0890  163.0497 C.3     1  UNL1        0.0213
     17 C         139.4506  143.5628  161.6333 C.3     1  UNL1        0.0213
     18 C         141.0916  145.1486  158.8267 C.2     1  UNL1        0.2653
     19 O         142.3663  144.5006  159.2798 O.2     1  UNL1       -0.2684
     20 N         139.9552  145.3229  159.7900 N.am    1  UNL1       -0.3012
     21 H         139.1186  145.7482  159.4926 H       1  UNL1        0.1497
     22 C         139.4141  147.7265  154.5346 C.3     1  UNL1        0.0518
     23 C         140.1823  146.8073  155.4373 C.ar    1  UNL1        0.0577
     24 C         139.9687  146.6385  156.9125 C.ar    1  UNL1        0.0398
     25 C         140.9534  145.6223  157.4101 C.ar    1  UNL1        0.1551
     26 N         141.7757  145.1631  156.2427 N.ar    1  UNL1       -0.1649
     27 N         141.2992  145.8954  155.0234 N.ar    1  UNL1       -0.2527
     28 C         141.8438  145.7427  153.6342 C.3     1  UNL1        0.1533
     29 O         139.3647  141.4536  167.2899 O.3     1  UNL1       -0.4360
     30 C         139.0400  140.2047  166.5252 C.ar    1  UNL1        0.1472
     31 C         138.6077  138.9685  167.2566 C.ar    1  UNL1        0.0376
     32 C         138.2830  137.7196  166.4918 C.ar    1  UNL1        0.0031
     33 C         138.3906  137.7069  164.9957 C.ar    1  UNL1        0.0002
     34 C         138.8230  138.9431  164.2644 C.ar    1  UNL1        0.0028
     35 C         139.1477  140.1920  165.0291 C.ar    1  UNL1        0.0375
     36 C         138.9306  138.9304  162.7682 C.ar    1  UNL1       -0.0024
     37 C         137.9451  139.6992  161.9389 C.ar    1  UNL1        0.0028
     38 C         138.0527  139.6865  160.4428 C.ar    1  UNL1        0.0366
     39 C         139.1458  138.9052  159.7761 C.ar    1  UNL1        0.1334
     40 O         139.2534  138.8925  158.2800 O.3     1  UNL1       -0.5055
     41 C         140.1313  138.1365  160.6055 C.ar    1  UNL1        0.0337
     42 C         140.0237  138.1491  162.1015 C.ar    1  UNL1       -0.0031
     43 H         138.6378  139.3727  157.7619 H       1  UNL1        0.2922
     44 C         141.0092  137.3804  162.9309 C.3     1  UNL1        0.0994
     45 N         142.1784  138.0857  163.5517 N.3     1  UNL1       -0.2646
     46 C         142.2950  138.1733  165.0447 C.3     1  UNL1        0.1049
     47 C         143.4642  138.8785  165.6656 C.3     1  UNL1        0.1595
     48 O         144.5168  139.4963  164.7935 O.3     1  UNL1       -0.3508
     49 C         144.4003  139.4087  163.3007 C.3     1  UNL1        0.1595
     50 C         143.2310  138.7034  162.6797 C.3     1  UNL1        0.1049
@<TRIPOS>BOND
     1    22    23    1
     2    23    24   ar
     3    24    25   ar
     4    25    18    1
     5    18    19    2
     6    18    20   am
     7    12    20    1
     8    12    13    1
     9    13    14    1
    10    14    15    1
    11    15     8    1
    12     8     9   am
    13     9    10    2
    14     9     1    1
    15     1     2   ar
    16     2     3   ar
    17     3     4    1
    18     3     5   ar
    19     5     6   ar
    20     6     7   ar
    21     7    29    1
    22    29    30    1
    23    30    31   ar
    24    31    32   ar
    25    32    33   ar
    26    33    34   ar
    27    34    36    1
    28    36    37   ar
    29    37    38   ar
    30    38    39   ar
    31    39    40    1
    32    39    41   ar
    33    41    42   ar
    34    42    44    1
    35    44    45    1
    36    45    46    1
    37    46    47    1
    38    47    48    1
    39    48    49    1
    40    49    50    1
    41    34    35   ar
    42    15    16    1
    43    16    17    1
    44    25    26   ar
    45    26    27   ar
    46    27    28    1
    47    27    23   ar
    48    17    12    1
    49     7     1   ar
    50    35    30   ar
    51    42    36   ar
    52    50    45    1
    53    20    21    1
    54     8    11    1
    55    40    43    1
@<TRIPOS>MOLECULE
*****
 50 55 0 0 0
SMALL
GASTEIGER

@<TRIPOS>ATOM
      1 C         142.9644  141.5106  167.3858 C.ar    1  UNL1        0.1090
      2 C         143.3547  142.5161  168.4282 C.ar    1  UNL1        0.0405
      3 C         143.2915  142.1523  169.8820 C.ar    1  UNL1        0.1596
      4 F         143.6819  143.1578  170.9244 F       1  UNL1       -0.2025
      5 C         142.8381  140.7830  170.2935 C.ar    1  UNL1        0.1316
      6 N         142.4478  139.7775  169.2511 N.ar    1  UNL1       -0.2073
      7 C         142.5109  140.1413  167.7973 C.ar    1  UNL1        0.2341
      8 N         141.9495  142.7213  165.3232 N.am    1  UNL1       -0.3024
      9 C         143.0275  141.8744  165.9319 C.2     1  UNL1        0.2504
     10 O         144.1687  141.3912  165.0868 O.2     1  UNL1       -0.2700
     11 H         141.2005  143.0385  165.8779 H       1  UNL1        0.1497
     12 C         142.1390  143.8128  160.9617 C.3     1  UNL1        0.0720
     13 C         142.5837  144.7982  162.0014 C.3     1  UNL1        0.0213
     14 C         142.5206  144.4344  163.4552 C.3     1  UNL1        0.0213
     15 C         142.0127  143.0851  163.8693 C.3     1  UNL1        0.0720
     16 C         141.5679  142.0997  162.8296 C.3     1  UNL1        0.0213
     17 C         141.6311  142.4635  161.3758 C.3     1  UNL1        0.0213
     18 C         141.1164  145.0111  158.8957 C.2     1  UNL1        0.2653
     19 O         139.9675  145.4819  159.7374 O.2     1  UNL1       -0.2684
     20 N         142.2021  144.1766  159.5078 N.am    1  UNL1       -0.3012
     21 H         142.9562  143.8676  158.9554 H       1  UNL1        0.1497
     22 C         140.0704  147.2494  154.2291 C.3     1  UNL1        0.0518
     23 C         140.6987  146.4038  155.2968 C.ar    1  UNL1        0.0577
     24 C         140.2815  146.3476  156.7366 C.ar    1  UNL1        0.0398
     25 C         141.1796  145.3749  157.4418 C.ar    1  UNL1        0.1551
     26 N         142.1518  144.8298  156.4380 N.ar    1  UNL1       -0.1649
     27 N         141.8546  145.4657  155.1123 N.ar    1  UNL1       -0.2527
     28 C         142.5851  145.2087  153.8277 C.3     1  UNL1        0.1533
     29 O         142.1206  139.1357  166.7549 O.3     1  UNL1       -0.4360
     30 C         140.7467  139.1732  166.1539 C.ar    1  UNL1        0.1472
     31 C         139.5384  139.1364  167.0420 C.ar    1  UNL1        0.0376
     32 C         138.1646  139.1739  166.4410 C.ar    1  UNL1        0.0031
     33 C         137.9991  139.2483  164.9519 C.ar    1  UNL1        0.0002
     34 C         139.2074  139.2851  164.0640 C.ar    1  UNL1        0.0028
     35 C         140.5812  139.2476  164.6649 C.ar    1  UNL1        0.0375
     36 C         139.0419  139.3595  162.5749 C.ar    1  UNL1       -0.0024
     37 C         139.8252  138.4392  161.6864 C.ar    1  UNL1        0.0028
     38 C         139.6597  138.5135  160.1974 C.ar    1  UNL1        0.0366
     39 C         138.7110  139.5082  159.5970 C.ar    1  UNL1        0.1334
     40 O         138.5456  139.5825  158.1079 O.3     1  UNL1       -0.5055
     41 C         137.9278  140.4285  160.4855 C.ar    1  UNL1        0.0337
     42 C         138.0932  140.3542  161.9745 C.ar    1  UNL1       -0.0031
     43 H         139.0348  139.0076  157.5529 H       1  UNL1        0.2922
     44 C         137.3100  141.2745  162.8630 C.3     1  UNL1        0.0994
     45 N         137.9092  142.5747  163.3107 N.3     1  UNL1       -0.2646
     46 C         138.2590  143.6267  162.3003 C.3     1  UNL1        0.1049
     47 C         138.8583  144.9268  162.7480 C.3     1  UNL1        0.1595
     48 O         139.1078  145.1750  164.2061 O.3     1  UNL1       -0.3508
     49 C         138.7580  144.1231  165.2165 C.3     1  UNL1        0.1595
     50 C         138.1587  142.8228  164.7689 C.3     1  UNL1        0.1049
@<TRIPOS>BOND
     1    22    23    1
     2    23    24   ar
     3    24    25   ar
     4    25    18    1
     5    18    19    2
     6    18    20   am
     7    12    20    1
     8    12    13    1
     9    13    14    1
    10    14    15    1
    11    15     8    1
    12     8     9   am
    13     9    10    2
    14     9     1    1
    15     1     2   ar
    16     2     3   ar
    17     3     4    1
    18     3     5   ar
    19     5     6   ar
    20     6     7   ar
    21     7    29    1
    22    29    30    1
    23    30    31   ar
    24    31    32   ar
    25    32    33   ar
    26    33    34   ar
    27    34    36    1
    28    36    37   ar
    29    37    38   ar
    30    38    39   ar
    31    39    40    1
    32    39    41   ar
    33    41    42   ar
    34    42    44    1
    35    44    45    1
    36    45    46    1
    37    46    47    1
    38    47    48    1
    39    48    49    1
    40    49    50    1
    41    34    35   ar
    42    15    16    1
    43    16    17    1
    44    25    26   ar
    45    26    27   ar
    46    27    28    1
    47    27    23   ar
    48    17    12    1
    49     7     1   ar
    50    35    30   ar
    51    42    36   ar
    52    50    45    1
    53    20    21    1
    54     8    11    1
    55    40    43    1
@<TRIPOS>MOLECULE
*****
 50 55 0 0 0
SMALL
GASTEIGER

@<TRIPOS>ATOM
      1 C         140.3834  141.5313  167.6324 C.ar    1  UNL1        0.1090
      2 C         140.1739  142.4735  168.7805 C.ar    1  UNL1        0.0405
      3 C         140.4910  142.0337  170.1791 C.ar    1  UNL1        0.1596
      4 F         140.2816  142.9760  171.3273 F       1  UNL1       -0.2025
      5 C         141.0176  140.6517  170.4295 C.ar    1  UNL1        0.1316
      6 N         141.2270  139.7095  169.2814 N.ar    1  UNL1       -0.2073
      7 C         140.9099  140.1492  167.8828 C.ar    1  UNL1        0.2341
      8 N         140.9531  142.9620  165.5399 N.am    1  UNL1       -0.3024
      9 C         140.0663  141.9710  166.2337 C.2     1  UNL1        0.2504
     10 O         138.8624  141.4197  165.5290 O.2     1  UNL1       -0.2700
     11 H         141.7432  143.3239  166.0025 H       1  UNL1        0.1497
     12 C         140.0018  144.2814  161.3442 C.3     1  UNL1        0.0720
     13 C         139.7124  145.1919  162.5004 C.3     1  UNL1        0.0213
     14 C         140.0295  144.7522  163.8990 C.3     1  UNL1        0.0213
     15 C         140.6360  143.4018  164.1413 C.3     1  UNL1        0.0720
     16 C         140.9254  142.4912  162.9850 C.3     1  UNL1        0.0213
     17 C         140.6083  142.9310  161.5864 C.3     1  UNL1        0.0213
     18 C         140.7919  144.9265  158.9547 C.2     1  UNL1        0.2653
     19 O         142.2163  144.6922  159.3624 O.2     1  UNL1       -0.2684
     20 N         139.6847  144.7211  159.9455 N.am    1  UNL1       -0.3012
     21 H         138.7498  144.8749  159.6779 H       1  UNL1        0.1497
     22 C         139.1852  147.8263  154.8448 C.3     1  UNL1        0.0518
     23 C         139.7363  146.6992  155.6670 C.ar    1  UNL1        0.0577
     24 C         139.8830  146.6864  157.1598 C.ar    1  UNL1        0.0398
     25 C         140.4748  145.3663  157.5560 C.ar    1  UNL1        0.1551
     26 N         140.6939  144.5632  156.3083 N.ar    1  UNL1       -0.1649
     27 N         140.2375  145.3869  155.1407 N.ar    1  UNL1       -0.2527
     28 C         140.2755  144.9714  153.7000 C.3     1  UNL1        0.1533
     29 O         141.1194  139.2070  166.7346 O.3     1  UNL1       -0.4360
     30 C         142.4347  139.1837  166.0138 C.ar    1  UNL1        0.1472
     31 C         143.5956  138.4329  166.5958 C.ar    1  UNL1        0.0376
     32 C         144.9109  138.4097  165.8750 C.ar    1  UNL1        0.0031
     33 C         145.0652  139.1372  164.5723 C.ar    1  UNL1        0.0002
     34 C         143.9043  139.8879  163.9904 C.ar    1  UNL1        0.0028
     35 C         142.5890  139.9112  164.7112 C.ar    1  UNL1        0.0375
     36 C         144.0586  140.6155  162.6877 C.ar    1  UNL1       -0.0024
     37 C         144.6247  142.0044  162.6669 C.ar    1  UNL1        0.0028
     38 C         144.7790  142.7319  161.3643 C.ar    1  UNL1        0.0366
     39 C         144.3673  142.0705  160.0825 C.ar    1  UNL1        0.1334
     40 O         144.5216  142.7981  158.7798 O.3     1  UNL1       -0.5055
     41 C         143.8012  140.6816  160.1034 C.ar    1  UNL1        0.0337
     42 C         143.6469  139.9541  161.4060 C.ar    1  UNL1       -0.0031
     43 H         144.8752  143.6657  158.7668 H       1  UNL1        0.2922
     44 C         143.0808  138.5652  161.4268 C.3     1  UNL1        0.0994
     45 N         141.5949  138.3611  161.4463 N.3     1  UNL1       -0.2646
     46 C         140.9326  137.7866  162.6635 C.3     1  UNL1        0.1049
     47 C         139.4467  137.5825  162.6829 C.3     1  UNL1        0.1595
     48 O         138.6230  137.9528  161.4852 O.3     1  UNL1       -0.3508
     49 C         139.2853  138.5272  160.2681 C.3     1  UNL1        0.1595
     50 C         140.7712  138.7313  160.2486 C.3     1  UNL1        0.1049
@<TRIPOS>BOND
     1    22    23    1
     2    23    24   ar
     3    24    25   ar
     4    25    18    1
     5    18    19    2
     6    18    20   am
     7    12    20    1
     8    12    13    1
     9    13    14    1
    10    14    15    1
    11    15     8    1
    12     8     9   am
    13     9    10    2
    14     9     1    1
    15     1     2   ar
    16     2     3   ar
    17     3     4    1
    18     3     5   ar
    19     5     6   ar
    20     6     7   ar
    21     7    29    1
    22    29    30    1
    23    30    31   ar
    24    31    32   ar
    25    32    33   ar
    26    33    34   ar
    27    34    36    1
    28    36    37   ar
    29    37    38   ar
    30    38    39   ar
    31    39    40    1
    32    39    41   ar
    33    41    42   ar
    34    42    44    1
    35    44    45    1
    36    45    46    1
    37    46    47    1
    38    47    48    1
    39    48    49    1
    40    49    50    1
    41    34    35   ar
    42    15    16    1
    43    16    17    1
    44    25    26   ar
    45    26    27   ar
    46    27    28    1
    47    27    23   ar
    48    17    12    1
    49     7     1   ar
    50    35    30   ar
    51    42    36   ar
    52    50    45    1
    53    20    21    1
    54     8    11    1
    55    40    43    1
@<TRIPOS>MOLECULE
*****
 50 55 0 0 0
SMALL
GASTEIGER

@<TRIPOS>ATOM
      1 C         140.4305  140.0404  166.3398 C.ar    1  UNL1        0.1090
      2 C         139.3375  139.9868  167.3657 C.ar    1  UNL1        0.0405
      3 C         139.6539  140.2280  168.8119 C.ar    1  UNL1        0.1596
      4 F         138.5609  140.1744  169.8379 F       1  UNL1       -0.2025
      5 C         141.0633  140.5229  169.2323 C.ar    1  UNL1        0.1316
      6 N         142.1563  140.5765  168.2064 N.ar    1  UNL1       -0.2073
      7 C         141.8399  140.3352  166.7602 C.ar    1  UNL1        0.2341
      8 N         139.4336  140.8649  164.0867 N.am    1  UNL1       -0.3024
      9 C         140.1141  139.7991  164.8935 C.2     1  UNL1        0.2504
     10 O         140.4783  138.4920  164.2541 O.2     1  UNL1       -0.2700
     11 H         139.1946  141.7228  164.5064 H       1  UNL1        0.1497
     12 C         138.4847  140.1411  159.7479 C.3     1  UNL1        0.0720
     13 C         139.7865  140.7780  160.1347 C.3     1  UNL1        0.0213
     14 C         140.1028  141.0192  161.5810 C.3     1  UNL1        0.0213
     15 C         139.1173  140.6236  162.6404 C.3     1  UNL1        0.0720
     16 C         137.8155  139.9868  162.2535 C.3     1  UNL1        0.0213
     17 C         137.4992  139.7455  160.8073 C.3     1  UNL1        0.0213
     18 C         137.7854  141.0483  157.4159 C.2     1  UNL1        0.2653
     19 O         137.7187  142.4380  157.9764 O.2     1  UNL1       -0.2684
     20 N         138.1683  139.8998  158.3015 N.am    1  UNL1       -0.3012
     21 H         138.2120  138.9877  157.9336 H       1  UNL1        0.1497
     22 C         136.7036  141.8507  152.3103 C.3     1  UNL1        0.0518
     23 C         136.9718  141.1759  153.6228 C.ar    1  UNL1        0.0577
     24 C         137.2662  141.8627  154.9235 C.ar    1  UNL1        0.0398
     25 C         137.4690  140.8070  155.9695 C.ar    1  UNL1        0.1551
     26 N         137.2999  139.4677  155.3155 N.ar    1  UNL1       -0.1649
     27 N         136.9926  139.6957  153.8651 N.ar    1  UNL1       -0.2527
     28 C         136.7489  138.6306  152.8376 C.3     1  UNL1        0.1533
     29 O         142.9329  140.3888  165.7342 O.3     1  UNL1       -0.4360
     30 C         143.2803  141.6911  165.0758 C.ar    1  UNL1        0.1472
     31 C         144.0293  142.7418  165.8406 C.ar    1  UNL1        0.0376
     32 C         144.3767  144.0441  165.1822 C.ar    1  UNL1        0.0031
     33 C         143.9750  144.2955  163.7590 C.ar    1  UNL1        0.0002
     34 C         143.2260  143.2448  162.9943 C.ar    1  UNL1        0.0028
     35 C         142.8787  141.9425  163.6527 C.ar    1  UNL1        0.0375
     36 C         142.8244  143.4962  161.5710 C.ar    1  UNL1       -0.0024
     37 C         143.4554  142.7063  160.4629 C.ar    1  UNL1        0.0028
     38 C         143.0538  142.9577  159.0398 C.ar    1  UNL1        0.0366
     39 C         142.0212  143.9990  158.7247 C.ar    1  UNL1        0.1334
     40 O         141.6195  144.2505  157.3014 O.3     1  UNL1       -0.5055
     41 C         141.3901  144.7889  159.8328 C.ar    1  UNL1        0.0337
     42 C         141.7918  144.5375  161.2559 C.ar    1  UNL1       -0.0031
     43 H         142.0137  143.7571  156.6092 H       1  UNL1        0.2922
     44 C         141.1607  145.3274  162.3640 C.3     1  UNL1        0.0994
     45 N         140.0171  144.7469  163.1419 N.3     1  UNL1       -0.2646
     46 C         138.7323  144.4077  162.4460 C.3     1  UNL1        0.1049
     47 C         137.5886  143.8271  163.2238 C.3     1  UNL1        0.1595
     48 O         137.7297  143.5859  164.6975 O.3     1  UNL1       -0.3508
     49 C         139.0145  143.9251  165.3934 C.3     1  UNL1        0.1595
     50 C         140.1582  144.5056  164.6156 C.3     1  UNL1        0.1049
@<TRIPOS>BOND
     1    22    23    1
     2    23    24   ar
     3    24    25   ar
     4    25    18    1
     5    18    19    2
     6    18    20   am
     7    12    20    1
     8    12    13    1
     9    13    14    1
    10    14    15    1
    11    15     8    1
    12     8     9   am
    13     9    10    2
    14     9     1    1
    15     1     2   ar
    16     2     3   ar
    17     3     4    1
    18     3     5   ar
    19     5     6   ar
    20     6     7   ar
    21     7    29    1
    22    29    30    1
    23    30    31   ar
    24    31    32   ar
    25    32    33   ar
    26    33    34   ar
    27    34    36    1
    28    36    37   ar
    29    37    38   ar
    30    38    39   ar
    31    39    40    1
    32    39    41   ar
    33    41    42   ar
    34    42    44    1
    35    44    45    1
    36    45    46    1
    37    46    47    1
    38    47    48    1
    39    48    49    1
    40    49    50    1
    41    34    35   ar
    42    15    16    1
    43    16    17    1
    44    25    26   ar
    45    26    27   ar
    46    27    28    1
    47    27    23   ar
    48    17    12    1
    49     7     1   ar
    50    35    30   ar
    51    42    36   ar
    52    50    45    1
    53    20    21    1
    54     8    11    1
    55    40    43    1
@<TRIPOS>MOLECULE
*****
 50 55 0 0 0
SMALL
GASTEIGER

@<TRIPOS>ATOM
      1 C         141.9477  143.0943  162.0769 C.ar    1  UNL1        0.1090
      2 C         140.8991  144.1555  161.9220 C.ar    1  UNL1        0.0405
      3 C         141.0167  145.4428  162.6828 C.ar    1  UNL1        0.1596
      4 F         139.9680  146.5042  162.5279 F       1  UNL1       -0.2025
      5 C         142.1831  145.6689  163.5985 C.ar    1  UNL1        0.1316
      6 N         143.2317  144.6077  163.7535 N.ar    1  UNL1       -0.2073
      7 C         143.1140  143.3204  162.9927 C.ar    1  UNL1        0.2341
      8 N         142.8578  141.4492  160.2837 N.am    1  UNL1       -0.3024
      9 C         141.8301  141.8068  161.3161 C.2     1  UNL1        0.2504
     10 O         140.6847  140.8771  161.5878 O.2     1  UNL1       -0.2700
     11 H         143.6095  142.0594  160.1054 H       1  UNL1        0.1497
     12 C         142.5049  137.5871  158.0012 C.3     1  UNL1        0.0720
     13 C         142.1214  138.8819  157.3482 C.3     1  UNL1        0.0213
     14 C         142.2391  140.1693  158.1091 C.3     1  UNL1        0.0213
     15 C         142.7401  140.1618  159.5229 C.3     1  UNL1        0.0720
     16 C         143.1236  138.8670  160.1759 C.3     1  UNL1        0.0213
     17 C         143.0059  137.5797  159.4150 C.3     1  UNL1        0.0213
     18 C         143.3544  135.9898  156.1366 C.2     1  UNL1        0.2653
     19 O         144.4393  136.9672  155.7935 O.2     1  UNL1       -0.2684
     20 N         142.3872  136.2997  157.2404 N.am    1  UNL1       -0.3012
     21 H         141.6752  135.6582  157.4655 H       1  UNL1        0.1497
     22 C         143.8295  130.9191  154.7424 C.3     1  UNL1        0.0518
     23 C         143.4552  132.3716  154.7350 C.ar    1  UNL1        0.0577
     24 C         143.8139  133.3800  155.7860 C.ar    1  UNL1        0.0398
     25 C         143.2368  134.7024  155.3758 C.ar    1  UNL1        0.1551
     26 N         142.5215  134.5113  154.0712 N.ar    1  UNL1       -0.1649
     27 N         142.6564  133.0709  153.6752 N.ar    1  UNL1       -0.2527
     28 C         142.0918  132.4404  152.4368 C.3     1  UNL1        0.1533
     29 O         144.1627  142.2590  163.1476 O.3     1  UNL1       -0.4360
     30 C         143.9415  141.1190  164.0970 C.ar    1  UNL1        0.1472
     31 C         144.7699  139.8740  163.9800 C.ar    1  UNL1        0.0376
     32 C         144.5487  138.7340  164.9295 C.ar    1  UNL1        0.0031
     33 C         143.4990  138.8390  165.9959 C.ar    1  UNL1        0.0002
     34 C         142.6707  140.0841  166.1129 C.ar    1  UNL1        0.0028
     35 C         142.8919  141.2241  165.1635 C.ar    1  UNL1        0.0375
     36 C         141.6211  140.1891  167.1794 C.ar    1  UNL1       -0.0024
     37 C         142.0020  140.6108  168.5676 C.ar    1  UNL1        0.0028
     38 C         140.9524  140.7159  169.6341 C.ar    1  UNL1        0.0366
     39 C         139.5220  140.3993  169.3123 C.ar    1  UNL1        0.1334
     40 O         138.4723  140.5043  170.3788 O.3     1  UNL1       -0.5055
     41 C         139.1411  139.9776  167.9241 C.ar    1  UNL1        0.0337
     42 C         140.1906  139.8725  166.8576 C.ar    1  UNL1       -0.0031
     43 H         138.7103  140.7677  171.2460 H       1  UNL1        0.2922
     44 C         139.8097  139.4509  165.4694 C.3     1  UNL1        0.0994
     45 N         138.9858  140.3618  164.6084 N.3     1  UNL1       -0.2646
     46 C         138.1403  139.7920  163.5081 C.3     1  UNL1        0.1049
     47 C         137.3164  140.7029  162.6471 C.3     1  UNL1        0.1595
     48 O         137.3380  142.1836  162.8863 O.3     1  UNL1       -0.3508
     49 C         138.1834  142.7533  163.9865 C.3     1  UNL1        0.1595
     50 C         139.0074  141.8424  164.8476 C.3     1  UNL1        0.1049
@<TRIPOS>BOND
     1    22    23    1
     2    23    24   ar
     3    24    25   ar
     4    25    18    1
     5    18    19    2
     6    18    20   am
     7    12    20    1
     8    12    13    1
     9    13    14    1
    10    14    15    1
    11    15     8    1
    12     8     9   am
    13     9    10    2
    14     9     1    1
    15     1     2   ar
    16     2     3   ar
    17     3     4    1
    18     3     5   ar
    19     5     6   ar
    20     6     7   ar
    21     7    29    1
    22    29    30    1
    23    30    31   ar
    24    31    32   ar
    25    32    33   ar
    26    33    34   ar
    27    34    36    1
    28    36    37   ar
    29    37    38   ar
    30    38    39   ar
    31    39    40    1
    32    39    41   ar
    33    41    42   ar
    34    42    44    1
    35    44    45    1
    36    45    46    1
    37    46    47    1
    38    47    48    1
    39    48    49    1
    40    49    50    1
    41    34    35   ar
    42    15    16    1
    43    16    17    1
    44    25    26   ar
    45    26    27   ar
    46    27    28    1
    47    27    23   ar
    48    17    12    1
    49     7     1   ar
    50    35    30   ar
    51    42    36   ar
    52    50    45    1
    53    20    21    1
    54     8    11    1
    55    40    43    1
@<TRIPOS>MOLECULE
*****
 50 55 0 0 0
SMALL
GASTEIGER

@<TRIPOS>ATOM
      1 C         142.5487  140.9885  166.0081 C.ar    1  UNL1        0.1090
      2 C         142.8080  139.8353  166.9316 C.ar    1  UNL1        0.0405
      3 C         142.3111  139.8810  168.3461 C.ar    1  UNL1        0.1596
      4 F         142.5703  138.7277  169.2697 F       1  UNL1       -0.2025
      5 C         141.5549  141.0798  168.8371 C.ar    1  UNL1        0.1316
      6 N         141.2957  142.2329  167.9136 N.ar    1  UNL1       -0.2073
      7 C         141.7925  142.1873  166.4991 C.ar    1  UNL1        0.2341
      8 N         142.2423  140.2415  163.5386 N.am    1  UNL1       -0.3024
      9 C         143.0456  140.9429  164.5934 C.2     1  UNL1        0.2504
     10 O         144.3458  141.5987  164.2337 O.2     1  UNL1       -0.2700
     11 H         141.3889  139.8111  163.7747 H       1  UNL1        0.1497
     12 C         143.7330  140.1047  159.2949 C.3     1  UNL1        0.0720
     13 C         144.3271  139.1941  160.3282 C.3     1  UNL1        0.0213
     14 C         143.8302  139.2397  161.7427 C.3     1  UNL1        0.0213
     15 C         142.7392  140.1959  162.1240 C.3     1  UNL1        0.0720
     16 C         142.1450  141.1065  161.0906 C.3     1  UNL1        0.0213
     17 C         142.6419  141.0609  159.6761 C.3     1  UNL1        0.0213
     18 C         145.0627  141.1841  157.3412 C.2     1  UNL1        0.2653
     19 O         145.3987  142.3548  158.2168 O.2     1  UNL1       -0.2684
     20 N         144.2299  140.0591  157.8803 N.am    1  UNL1       -0.3012
     21 H         144.0093  139.2907  157.3056 H       1  UNL1        0.1497
     22 C         147.7616  142.2502  152.9298 C.3     1  UNL1        0.0518
     23 C         146.8002  141.6286  153.8989 C.ar    1  UNL1        0.0577
     24 C         146.6217  142.0182  155.3365 C.ar    1  UNL1        0.0398
     25 C         145.5596  141.1385  155.9266 C.ar    1  UNL1        0.1551
     26 N         145.0816  140.2054  154.8539 N.ar    1  UNL1       -0.1649
     27 N         145.8483  140.5083  153.6007 N.ar    1  UNL1       -0.2527
     28 C         145.6909  139.8129  152.2811 C.3     1  UNL1        0.1533
     29 O         141.5333  143.3405  165.5755 O.3     1  UNL1       -0.4360
     30 C         140.2260  143.4383  164.8465 C.ar    1  UNL1        0.1472
     31 C         139.0870  144.2064  165.4488 C.ar    1  UNL1        0.0376
     32 C         137.7797  144.3042  164.7198 C.ar    1  UNL1        0.0031
     33 C         137.6114  143.6338  163.3885 C.ar    1  UNL1        0.0002
     34 C         138.7504  142.8658  162.7862 C.ar    1  UNL1        0.0028
     35 C         140.0577  142.7680  163.5152 C.ar    1  UNL1        0.0375
     36 C         138.5821  142.1954  161.4549 C.ar    1  UNL1       -0.0024
     37 C         138.9436  142.9266  160.1960 C.ar    1  UNL1        0.0028
     38 C         138.7754  142.2563  158.8647 C.ar    1  UNL1        0.0366
     39 C         138.2456  140.8549  158.7923 C.ar    1  UNL1        0.1334
     40 O         138.0773  140.1845  157.4609 O.3     1  UNL1       -0.5055
     41 C         137.8841  140.1237  160.0511 C.ar    1  UNL1        0.0337
     42 C         138.0523  140.7940  161.3824 C.ar    1  UNL1       -0.0031
     43 H         138.3031  140.6412  156.6746 H       1  UNL1        0.2922
     44 C         137.6908  140.0628  162.6413 C.3     1  UNL1        0.0994
     45 N         138.7039  139.1875  163.3175 N.3     1  UNL1       -0.2646
     46 C         138.9323  139.3080  164.7951 C.3     1  UNL1        0.1049
     47 C         139.9454  138.4326  165.4713 C.3     1  UNL1        0.1595
     48 O         140.7302  137.4367  164.6700 O.3     1  UNL1       -0.3508
     49 C         140.5018  137.3161  163.1924 C.3     1  UNL1        0.1595
     50 C         139.4887  138.1915  162.5161 C.3     1  UNL1        0.1049
@<TRIPOS>BOND
     1    22    23    1
     2    23    24   ar
     3    24    25   ar
     4    25    18    1
     5    18    19    2
     6    18    20   am
     7    12    20    1
     8    12    13    1
     9    13    14    1
    10    14    15    1
    11    15     8    1
    12     8     9   am
    13     9    10    2
    14     9     1    1
    15     1     2   ar
    16     2     3   ar
    17     3     4    1
    18     3     5   ar
    19     5     6   ar
    20     6     7   ar
    21     7    29    1
    22    29    30    1
    23    30    31   ar
    24    31    32   ar
    25    32    33   ar
    26    33    34   ar
    27    34    36    1
    28    36    37   ar
    29    37    38   ar
    30    38    39   ar
    31    39    40    1
    32    39    41   ar
    33    41    42   ar
    34    42    44    1
    35    44    45    1
    36    45    46    1
    37    46    47    1
    38    47    48    1
    39    48    49    1
    40    49    50    1
    41    34    35   ar
    42    15    16    1
    43    16    17    1
    44    25    26   ar
    45    26    27   ar
    46    27    28    1
    47    27    23   ar
    48    17    12    1
    49     7     1   ar
    50    35    30   ar
    51    42    36   ar
    52    50    45    1
    53    20    21    1
    54     8    11    1
    55    40    43    1
@<TRIPOS>MOLECULE
*****
 50 55 0 0 0
SMALL
GASTEIGER

@<TRIPOS>ATOM
      1 C         141.2659  142.3668  166.7578 C.ar    1  UNL1        0.1090
      2 C         140.5355  143.0502  167.8754 C.ar    1  UNL1        0.0405
      3 C         140.5803  142.4779  169.2612 C.ar    1  UNL1        0.1596
      4 F         139.8498  143.1613  170.3790 F       1  UNL1       -0.2025
      5 C         141.3556  141.2220  169.5292 C.ar    1  UNL1        0.1316
      6 N         142.0860  140.5386  168.4115 N.ar    1  UNL1       -0.2073
      7 C         142.0412  141.1110  167.0258 C.ar    1  UNL1        0.2341
      8 N         139.9145  143.0338  164.6414 N.am    1  UNL1       -0.3024
      9 C         141.2212  142.9392  165.3719 C.2     1  UNL1        0.2504
     10 O         142.4831  143.4169  164.7167 O.2     1  UNL1       -0.2700
     11 H         139.0863  142.7202  165.0715 H       1  UNL1        0.1497
     12 C         139.7802  144.7510  160.4841 C.3     1  UNL1        0.0720
     13 C         139.8704  145.6645  161.6703 C.3     1  UNL1        0.0213
     14 C         139.9152  145.0922  163.0561 C.3     1  UNL1        0.0213
     15 C         139.8698  143.6062  163.2556 C.3     1  UNL1        0.0720
     16 C         139.7796  142.6926  162.0694 C.3     1  UNL1        0.0213
     17 C         139.7348  143.2650  160.6836 C.3     1  UNL1        0.0213
     18 C         140.9657  145.3079  158.2403 C.2     1  UNL1        0.2653
     19 O         142.2408  144.7200  158.7681 O.2     1  UNL1       -0.2684
     20 N         139.7354  145.3233  159.0983 N.am    1  UNL1       -0.3012
     21 H         138.8986  145.7092  158.7518 H       1  UNL1        0.1497
     22 C         141.8555  146.0738  153.0922 C.3     1  UNL1        0.0518
     23 C         141.3300  146.2323  154.4882 C.ar    1  UNL1        0.0577
     24 C         141.6679  145.3612  155.6617 C.ar    1  UNL1        0.0398
     25 C         140.9209  145.8802  156.8545 C.ar    1  UNL1        0.1551
     26 N         140.1214  147.0720  156.4182 N.ar    1  UNL1       -0.1649
     27 N         140.3742  147.2896  154.9558 N.ar    1  UNL1       -0.2527
     28 C         139.7762  148.3741  154.1095 C.3     1  UNL1        0.1533
     29 O         142.7717  140.4275  165.9080 O.3     1  UNL1       -0.4360
     30 C         142.0745  139.3878  165.0816 C.ar    1  UNL1        0.1472
     31 C         142.1631  137.9406  165.4662 C.ar    1  UNL1        0.0376
     32 C         141.4659  136.9009  164.6399 C.ar    1  UNL1        0.0031
     33 C         140.6800  137.3084  163.4289 C.ar    1  UNL1        0.0002
     34 C         140.5914  138.7555  163.0443 C.ar    1  UNL1        0.0028
     35 C         141.2886  139.7952  163.8707 C.ar    1  UNL1        0.0375
     36 C         139.8055  139.1630  161.8333 C.ar    1  UNL1       -0.0024
     37 C         138.3257  139.3838  161.9390 C.ar    1  UNL1        0.0028
     38 C         137.5398  139.7913  160.7281 C.ar    1  UNL1        0.0366
     39 C         138.2338  139.9780  159.4115 C.ar    1  UNL1        0.1334
     40 O         137.4479  140.3855  158.2005 O.3     1  UNL1       -0.5055
     41 C         139.7137  139.7572  159.3058 C.ar    1  UNL1        0.0337
     42 C         140.4996  139.3497  160.5167 C.ar    1  UNL1       -0.0031
     43 H         136.5235  140.5234  158.2665 H       1  UNL1        0.2922
     44 C         141.9795  139.1289  160.4110 C.3     1  UNL1        0.0994
     45 N         142.8836  140.2686  160.0459 N.3     1  UNL1       -0.2646
     46 C         143.4689  140.3497  158.6671 C.3     1  UNL1        0.1049
     47 C         144.3731  141.4894  158.3020 C.3     1  UNL1        0.1595
     48 O         144.6920  142.5482  159.3156 O.3     1  UNL1       -0.3508
     49 C         144.1068  142.4672  160.6943 C.3     1  UNL1        0.1595
     50 C         143.2026  141.3274  161.0595 C.3     1  UNL1        0.1049
@<TRIPOS>BOND
     1    22    23    1
     2    23    24   ar
     3    24    25   ar
     4    25    18    1
     5    18    19    2
     6    18    20   am
     7    12    20    1
     8    12    13    1
     9    13    14    1
    10    14    15    1
    11    15     8    1
    12     8     9   am
    13     9    10    2
    14     9     1    1
    15     1     2   ar
    16     2     3   ar
    17     3     4    1
    18     3     5   ar
    19     5     6   ar
    20     6     7   ar
    21     7    29    1
    22    29    30    1
    23    30    31   ar
    24    31    32   ar
    25    32    33   ar
    26    33    34   ar
    27    34    36    1
    28    36    37   ar
    29    37    38   ar
    30    38    39   ar
    31    39    40    1
    32    39    41   ar
    33    41    42   ar
    34    42    44    1
    35    44    45    1
    36    45    46    1
    37    46    47    1
    38    47    48    1
    39    48    49    1
    40    49    50    1
    41    34    35   ar
    42    15    16    1
    43    16    17    1
    44    25    26   ar
    45    26    27   ar
    46    27    28    1
    47    27    23   ar
    48    17    12    1
    49     7     1   ar
    50    35    30   ar
    51    42    36   ar
    52    50    45    1
    53    20    21    1
    54     8    11    1
    55    40    43    1
@<TRIPOS>MOLECULE
*****
 50 55 0 0 0
SMALL
GASTEIGER

@<TRIPOS>ATOM
      1 C         141.6192  141.4764  167.1201 C.ar    1  UNL1        0.1090
      2 C         140.8550  141.8886  168.3432 C.ar    1  UNL1        0.0405
      3 C         141.0799  141.1758  169.6437 C.ar    1  UNL1        0.1596
      4 F         140.3156  141.5880  170.8668 F       1  UNL1       -0.2025
      5 C         142.0690  140.0508  169.7211 C.ar    1  UNL1        0.1316
      6 N         142.8333  139.6386  168.4980 N.ar    1  UNL1       -0.2073
      7 C         142.6084  140.3514  167.1975 C.ar    1  UNL1        0.2341
      8 N         142.5662  142.6464  165.0024 N.am    1  UNL1       -0.3024
      9 C         141.3944  142.1892  165.8195 C.2     1  UNL1        0.2504
     10 O         139.9976  142.4448  165.3361 O.2     1  UNL1       -0.2700
     11 H         143.4830  142.4786  165.3197 H       1  UNL1        0.1497
     12 C         141.8917  144.7846  161.1008 C.3     1  UNL1        0.0720
     13 C         142.6216  143.4743  161.1215 C.3     1  UNL1        0.0213
     14 C         142.8464  142.7616  162.4220 C.3     1  UNL1        0.0213
     15 C         142.3413  143.3591  163.7018 C.3     1  UNL1        0.0720
     16 C         141.6114  144.6694  163.6811 C.3     1  UNL1        0.0213
     17 C         141.3866  145.3821  162.3806 C.3     1  UNL1        0.0213
     18 C         140.4994  145.1271  158.9341 C.2     1  UNL1        0.2653
     19 O         139.5569  144.0441  159.3685 O.2     1  UNL1       -0.2684
     20 N         141.6668  145.4974  159.8002 N.am    1  UNL1       -0.3012
     21 H         142.2854  146.2082  159.5151 H       1  UNL1        0.1497
     22 C         140.7276  146.4488  153.8270 C.3     1  UNL1        0.0518
     23 C         140.3795  146.4474  155.2860 C.ar    1  UNL1        0.0577
     24 C         140.8720  145.4671  156.3091 C.ar    1  UNL1        0.0398
     25 C         140.2746  145.8399  157.6335 C.ar    1  UNL1        0.1551
     26 N         139.4128  147.0505  157.4291 N.ar    1  UNL1       -0.1649
     27 N         139.4776  147.4260  155.9783 N.ar    1  UNL1       -0.2527
     28 C         138.7657  148.5777  155.3330 C.3     1  UNL1        0.1533
     29 O         143.3727  139.9392  165.9743 O.3     1  UNL1       -0.4360
     30 C         142.7053  139.1109  164.9167 C.ar    1  UNL1        0.1472
     31 C         141.9632  137.8642  165.2977 C.ar    1  UNL1        0.0376
     32 C         141.2958  137.0359  164.2401 C.ar    1  UNL1        0.0031
     33 C         141.3705  137.4543  162.8015 C.ar    1  UNL1        0.0002
     34 C         142.1126  138.7010  162.4206 C.ar    1  UNL1        0.0028
     35 C         142.7800  139.5293  163.4782 C.ar    1  UNL1        0.0375
     36 C         142.1873  139.1194  160.9820 C.ar    1  UNL1       -0.0024
     37 C         143.5118  139.4674  160.3700 C.ar    1  UNL1        0.0028
     38 C         143.5866  139.8858  158.9315 C.ar    1  UNL1        0.0366
     39 C         142.3369  139.9562  158.1051 C.ar    1  UNL1        0.1334
     40 O         142.4116  140.3746  156.6665 O.3     1  UNL1       -0.5055
     41 C         141.0124  139.6082  158.7171 C.ar    1  UNL1        0.0337
     42 C         140.9376  139.1898  160.1556 C.ar    1  UNL1       -0.0031
     43 H         143.2390  140.5920  156.2842 H       1  UNL1        0.2922
     44 C         139.6131  138.8418  160.7676 C.3     1  UNL1        0.0994
     45 N         138.8789  139.8559  161.5936 N.3     1  UNL1       -0.2646
     46 C         138.6275  141.2295  161.0457 C.3     1  UNL1        0.1049
     47 C         137.8933  142.2437  161.8717 C.3     1  UNL1        0.1595
     48 O         137.4106  141.8844  163.2457 O.3     1  UNL1       -0.3508
     49 C         137.6620  140.5109  163.7937 C.3     1  UNL1        0.1595
     50 C         138.3961  139.4966  162.9676 C.3     1  UNL1        0.1049
@<TRIPOS>BOND
     1    22    23    1
     2    23    24   ar
     3    24    25   ar
     4    25    18    1
     5    18    19    2
     6    18    20   am
     7    12    20    1
     8    12    13    1
     9    13    14    1
    10    14    15    1
    11    15     8    1
    12     8     9   am
    13     9    10    2
    14     9     1    1
    15     1     2   ar
    16     2     3   ar
    17     3     4    1
    18     3     5   ar
    19     5     6   ar
    20     6     7   ar
    21     7    29    1
    22    29    30    1
    23    30    31   ar
    24    31    32   ar
    25    32    33   ar
    26    33    34   ar
    27    34    36    1
    28    36    37   ar
    29    37    38   ar
    30    38    39   ar
    31    39    40    1
    32    39    41   ar
    33    41    42   ar
    34    42    44    1
    35    44    45    1
    36    45    46    1
    37    46    47    1
    38    47    48    1
    39    48    49    1
    40    49    50    1
    41    34    35   ar
    42    15    16    1
    43    16    17    1
    44    25    26   ar
    45    26    27   ar
    46    27    28    1
    47    27    23   ar
    48    17    12    1
    49     7     1   ar
    50    35    30   ar
    51    42    36   ar
    52    50    45    1
    53    20    21    1
    54     8    11    1
    55    40    43    1
@<TRIPOS>MOLECULE
*****
 50 55 0 0 0
SMALL
GASTEIGER

@<TRIPOS>ATOM
      1 C         144.9651  141.6803  157.0400 C.ar    1  UNL1        0.1090
      2 C         146.3784  142.0993  156.7623 C.ar    1  UNL1        0.0405
      3 C         146.8082  142.4035  155.3578 C.ar    1  UNL1        0.1596
      4 F         148.2215  142.8224  155.0800 F       1  UNL1       -0.2025
      5 C         145.8247  142.2888  154.2310 C.ar    1  UNL1        0.1316
      6 N         144.4115  141.8698  154.5087 N.ar    1  UNL1       -0.2073
      7 C         143.9817  141.5656  155.9132 C.ar    1  UNL1        0.2341
      8 N         144.4728  142.4743  159.4643 N.am    1  UNL1       -0.3024
      9 C         144.5353  141.3761  158.4446 C.2     1  UNL1        0.2504
     10 O         144.1678  139.9736  158.8293 O.2     1  UNL1       -0.2700
     11 H         144.7140  143.3948  159.2118 H       1  UNL1        0.1497
     12 C         143.1834  141.5616  163.6779 C.3     1  UNL1        0.0720
     13 C         144.6300  141.8180  163.3752 C.3     1  UNL1        0.0213
     14 C         145.0597  142.1222  161.9707 C.3     1  UNL1        0.0213
     15 C         144.0430  142.1701  160.8689 C.3     1  UNL1        0.0720
     16 C         142.5964  141.9137  161.1716 C.3     1  UNL1        0.0213
     17 C         142.1666  141.6095  162.5761 C.3     1  UNL1        0.0213
     18 C         141.8936  142.2318  165.8314 C.2     1  UNL1        0.2653
     19 O         141.4634  143.5106  165.1757 O.2     1  UNL1       -0.2684
     20 N         142.7535  141.2574  165.0825 N.am    1  UNL1       -0.3012
     21 H         143.0358  140.4181  165.5128 H       1  UNL1        0.1497
     22 C         139.1052  140.4933  169.9646 C.3     1  UNL1        0.0518
     23 C         140.1820  141.1285  169.1357 C.ar    1  UNL1        0.0577
     24 C         140.2075  141.2133  167.6383 C.ar    1  UNL1        0.0398
     25 C         141.4637  141.9276  167.2359 C.ar    1  UNL1        0.1551
     26 N         142.2145  142.2842  168.4846 N.ar    1  UNL1       -0.1649
     27 N         141.4224  141.7903  169.6587 N.ar    1  UNL1       -0.2527
     28 C         141.8036  141.9332  171.1023 C.3     1  UNL1        0.1533
     29 O         142.5683  141.1466  156.1910 O.3     1  UNL1       -0.4360
     30 C         141.5314  142.1788  156.5216 C.ar    1  UNL1        0.1472
     31 C         140.7326  142.8177  155.4244 C.ar    1  UNL1        0.0376
     32 C         139.6956  143.8499  155.7551 C.ar    1  UNL1        0.0031
     33 C         139.4574  144.2431  157.1829 C.ar    1  UNL1        0.0002
     34 C         140.2562  143.6042  158.2800 C.ar    1  UNL1        0.0028
     35 C         141.2931  142.5720  157.9494 C.ar    1  UNL1        0.0375
     36 C         140.0180  143.9974  159.7079 C.ar    1  UNL1       -0.0024
     37 C         140.7169  145.1935  160.2830 C.ar    1  UNL1        0.0028
     38 C         140.4788  145.5868  161.7108 C.ar    1  UNL1        0.0366
     39 C         139.5416  144.7839  162.5634 C.ar    1  UNL1        0.1334
     40 O         139.3034  145.1772  163.9913 O.3     1  UNL1       -0.5055
     41 C         138.8427  143.5878  161.9884 C.ar    1  UNL1        0.0337
     42 C         139.0808  143.1946  160.5606 C.ar    1  UNL1       -0.0031
     43 H         139.7401  145.9243  164.3506 H       1  UNL1        0.2922
     44 C         138.3818  141.9984  159.9855 C.3     1  UNL1        0.0994
     45 N         138.6546  140.6318  160.5403 N.3     1  UNL1       -0.2646
     46 C         137.7891  140.0799  161.6342 C.3     1  UNL1        0.1049
     47 C         138.0618  138.7133  162.1890 C.3     1  UNL1        0.1595
     48 O         139.2000  137.8984  161.6499 O.3     1  UNL1       -0.3508
     49 C         140.0654  138.4502  160.5561 C.3     1  UNL1        0.1595
     50 C         139.7927  139.8169  160.0013 C.3     1  UNL1        0.1049
@<TRIPOS>BOND
     1    22    23    1
     2    23    24   ar
     3    24    25   ar
     4    25    18    1
     5    18    19    2
     6    18    20   am
     7    12    20    1
     8    12    13    1
     9    13    14    1
    10    14    15    1
    11    15     8    1
    12     8     9   am
    13     9    10    2
    14     9     1    1
    15     1     2   ar
    16     2     3   ar
    17     3     4    1
    18     3     5   ar
    19     5     6   ar
    20     6     7   ar
    21     7    29    1
    22    29    30    1
    23    30    31   ar
    24    31    32   ar
    25    32    33   ar
    26    33    34   ar
    27    34    36    1
    28    36    37   ar
    29    37    38   ar
    30    38    39   ar
    31    39    40    1
    32    39    41   ar
    33    41    42   ar
    34    42    44    1
    35    44    45    1
    36    45    46    1
    37    46    47    1
    38    47    48    1
    39    48    49    1
    40    49    50    1
    41    34    35   ar
    42    15    16    1
    43    16    17    1
    44    25    26   ar
    45    26    27   ar
    46    27    28    1
    47    27    23   ar
    48    17    12    1
    49     7     1   ar
    50    35    30   ar
    51    42    36   ar
    52    50    45    1
    53    20    21    1
    54     8    11    1
    55    40    43    1
