@<TRIPOS>MOLECULE
*****
 37 40 0 0 0
SMALL
GASTEIGER

@<TRIPOS>ATOM
      1 C         142.0597  142.4714  163.1420 C.ar    1  UNL1        0.2046
      2 N         141.4364  141.1292  163.3869 N.ar    1  UNL1       -0.1998
      3 C         141.6125  140.4513  164.7134 C.ar    1  UNL1        0.1389
      4 N         140.9893  139.1092  164.9584 N.pl3   1  UNL1       -0.3420
      5 C         142.4120  141.1157  165.7949 C.ar    1  UNL1        0.1169
      6 C         143.0353  142.4579  165.5499 C.ar    1  UNL1        0.2716
      7 O         143.8347  143.1223  166.6313 O.2     1  UNL1       -0.2663
      8 N         142.8591  143.1358  164.2234 N.ar    1  UNL1       -0.2662
      9 C         143.4824  144.4780  163.9784 C.3     1  UNL1        0.1363
     10 H         140.4646  138.6731  164.2486 H       1  UNL1        0.1437
     11 H         141.1049  138.6643  165.8290 H       1  UNL1        0.1437
     12 C         139.7445  146.7943  156.5872 C.3     1  UNL1        0.0029
     13 C         140.6290  145.8690  157.3691 C.3     1  UNL1        0.0340
     14 C         140.4064  145.4224  158.7838 C.3     1  UNL1        0.0042
     15 C         141.5312  144.5051  159.1627 C.3     1  UNL1        0.0190
     16 C         140.5261  144.7215  160.2549 C.3     1  UNL1        0.0229
     17 C         140.7023  144.0436  161.5813 C.3     1  UNL1        0.0936
     18 N         141.8835  143.1493  161.8155 N.pl3   1  UNL1       -0.2794
     19 C         142.8886  142.9329  160.7233 C.3     1  UNL1        0.0936
     20 C         142.7125  143.6108  159.3969 C.3     1  UNL1        0.0229
     21 C         142.4489  144.3848  157.9822 C.3     1  UNL1        0.0838
     22 N         143.7038  143.5654  157.9210 N.3     1  UNL1       -0.3200
     23 C         141.8913  145.2277  156.8738 C.3     1  UNL1        0.1749
     24 F         142.4908  145.3991  155.5096 F       1  UNL1       -0.2359
     25 H         143.8456  143.0934  158.8141 H       1  UNL1        0.1189
     26 H         144.4988  144.1749  157.7286 H       1  UNL1        0.1189
     27 S         142.5881  140.4379  167.1213 S.3     1  UNL1       -0.0780
     28 C         141.5185  140.5470  168.1672 C.ar    1  UNL1        0.0514
     29 C         140.1456  140.0073  167.8952 C.ar    1  UNL1        0.0095
     30 C         139.0760  140.1165  168.9411 C.ar    1  UNL1        0.0212
     31 C         139.3792  140.7653  170.2591 C.ar    1  UNL1        0.0988
     32 N         140.7521  141.3050  170.5312 N.ar    1  UNL1       -0.2394
     33 C         141.8217  141.1958  169.4853 C.ar    1  UNL1        0.1585
     34 C         143.1946  141.7355  169.7573 C.3     1  UNL1        0.4353
     35 F         144.5674  142.2751  170.0294 F       1  UNL1       -0.1644
     36 F         143.6321  140.3821  170.2338 F       1  UNL1       -0.1644
     37 F         142.7570  143.0888  169.2809 F       1  UNL1       -0.1644
@<TRIPOS>BOND
     1    13    12    1
     2    13    14    1
     3    14    15    1
     4    15    16    1
     5    16    17    1
     6    17    18    1
     7    18     1    1
     8     1     2   ar
     9     2     3   ar
    10     3     4    1
    11     3     5   ar
    12     5    27    1
    13    27    28    1
    14    28    29   ar
    15    29    30   ar
    16    30    31   ar
    17    31    32   ar
    18    32    33   ar
    19    33    34    1
    20    34    35    1
    21    34    36    1
    22    34    37    1
    23     5     6   ar
    24     6     7    2
    25     6     8   ar
    26     8     9    1
    27    18    19    1
    28    19    20    1
    29    15    21    1
    30    21    22    1
    31    21    23    1
    32    23    24    1
    33    23    13    1
    34    20    15    1
    35     8     1   ar
    36    33    28   ar
    37     4    10    1
    38     4    11    1
    39    22    25    1
    40    22    26    1
@<TRIPOS>MOLECULE
*****
 37 40 0 0 0
SMALL
GASTEIGER

@<TRIPOS>ATOM
      1 C         142.0623  142.6544  163.5855 C.ar    1  UNL1        0.2046
      2 N         141.1781  141.5222  164.0169 N.ar    1  UNL1       -0.1998
      3 C         141.3111  140.9507  165.3974 C.ar    1  UNL1        0.1389
      4 N         140.4268  139.8185  165.8288 N.pl3   1  UNL1       -0.3420
      5 C         142.3283  141.5114  166.3464 C.ar    1  UNL1        0.1169
      6 C         143.2126  142.6437  165.9149 C.ar    1  UNL1        0.2716
      7 O         144.2299  143.2044  166.8640 O.2     1  UNL1       -0.2663
      8 N         143.0796  143.2151  164.5345 N.ar    1  UNL1       -0.2662
      9 C         143.9639  144.3474  164.1030 C.3     1  UNL1        0.1363
     10 H         139.7591  139.4505  165.2059 H       1  UNL1        0.1437
     11 H         140.5141  139.4434  166.7349 H       1  UNL1        0.1437
     12 C         142.5419  144.7249  155.6800 C.3     1  UNL1        0.0029
     13 C         142.0061  144.7951  157.0793 C.3     1  UNL1        0.0340
     14 C         142.4708  143.9716  158.2438 C.3     1  UNL1        0.0042
     15 C         141.6634  144.3687  159.4440 C.3     1  UNL1        0.0190
     16 C         142.6778  143.2984  159.7181 C.3     1  UNL1        0.0229
     17 C         142.8108  142.7269  161.0985 C.3     1  UNL1        0.0936
     18 N         141.9293  143.2259  162.2049 N.pl3   1  UNL1       -0.2794
     19 C         140.9149  144.2963  161.9308 C.3     1  UNL1        0.0936
     20 C         140.7820  144.8677  160.5504 C.3     1  UNL1        0.0229
     21 C         140.6997  145.4377  159.0212 C.3     1  UNL1        0.0838
     22 N         139.6998  146.1228  159.9049 N.3     1  UNL1       -0.3200
     23 C         140.9115  145.7012  157.5598 C.3     1  UNL1        0.1749
     24 F         140.1605  146.6961  156.7255 F       1  UNL1       -0.2359
     25 H         139.7711  145.7501  160.8516 H       1  UNL1        0.1189
     26 H         138.7595  145.9591  159.5449 H       1  UNL1        0.1189
     27 S         142.4614  140.9400  167.7269 S.3     1  UNL1       -0.0780
     28 C         141.6955  141.5449  168.8660 C.ar    1  UNL1        0.0514
     29 C         140.9288  142.8179  168.6621 C.ar    1  UNL1        0.0095
     30 C         140.1629  143.4228  169.8013 C.ar    1  UNL1        0.0212
     31 C         140.1637  142.7547  171.1442 C.ar    1  UNL1        0.0988
     32 N         140.9304  141.4816  171.3481 N.ar    1  UNL1       -0.2394
     33 C         141.6963  140.8767  170.2090 C.ar    1  UNL1        0.1585
     34 C         142.4630  139.6037  170.4129 C.3     1  UNL1        0.4353
     35 F         143.2297  138.3307  170.6167 F       1  UNL1       -0.1644
     36 F         141.2043  138.8133  170.2106 F       1  UNL1       -0.1644
     37 F         143.7217  140.3942  170.6151 F       1  UNL1       -0.1644
@<TRIPOS>BOND
     1    13    12    1
     2    13    14    1
     3    14    15    1
     4    15    16    1
     5    16    17    1
     6    17    18    1
     7    18     1    1
     8     1     2   ar
     9     2     3   ar
    10     3     4    1
    11     3     5   ar
    12     5    27    1
    13    27    28    1
    14    28    29   ar
    15    29    30   ar
    16    30    31   ar
    17    31    32   ar
    18    32    33   ar
    19    33    34    1
    20    34    35    1
    21    34    36    1
    22    34    37    1
    23     5     6   ar
    24     6     7    2
    25     6     8   ar
    26     8     9    1
    27    18    19    1
    28    19    20    1
    29    15    21    1
    30    21    22    1
    31    21    23    1
    32    23    24    1
    33    23    13    1
    34    20    15    1
    35     8     1   ar
    36    33    28   ar
    37     4    10    1
    38     4    11    1
    39    22    25    1
    40    22    26    1
@<TRIPOS>MOLECULE
*****
 37 40 0 0 0
SMALL
GASTEIGER

@<TRIPOS>ATOM
      1 C         140.0168  143.6728  159.4311 C.ar    1  UNL1        0.2046
      2 N         139.8160  144.8864  160.2893 N.ar    1  UNL1       -0.1998
      3 C         140.6320  145.0676  161.5349 C.ar    1  UNL1        0.1389
      4 N         140.4312  146.2813  162.3931 N.pl3   1  UNL1       -0.3420
      5 C         141.6488  144.0350  161.9222 C.ar    1  UNL1        0.1169
      6 C         141.8495  142.8213  161.0639 C.ar    1  UNL1        0.2716
      7 O         142.8663  141.7887  161.4512 O.2     1  UNL1       -0.2663
      8 N         141.0336  142.6402  159.8184 N.ar    1  UNL1       -0.2662
      9 C         141.2344  141.4265  158.9601 C.3     1  UNL1        0.1363
     10 H         139.7639  146.9590  162.1389 H       1  UNL1        0.1437
     11 H         140.9667  146.4002  163.2107 H       1  UNL1        0.1437
     12 C         134.7546  141.5695  153.5237 C.3     1  UNL1        0.0029
     13 C         135.9003  142.3290  154.1241 C.3     1  UNL1        0.0340
     14 C         136.4210  142.1791  155.5229 C.3     1  UNL1        0.0042
     15 C         137.5690  143.1292  155.6944 C.3     1  UNL1        0.0190
     16 C         137.2615  142.3167  156.9172 C.3     1  UNL1        0.0229
     17 C         138.0775  142.4979  158.1627 C.3     1  UNL1        0.0936
     18 N         139.2009  143.4916  158.1855 N.pl3   1  UNL1       -0.2794
     19 C         139.5084  144.3041  156.9627 C.3     1  UNL1        0.0936
     20 C         138.6924  144.1229  155.7172 C.3     1  UNL1        0.0229
     21 C         137.7577  143.8664  154.4017 C.3     1  UNL1        0.0838
     22 N         138.7955  144.9141  154.1277 N.3     1  UNL1       -0.3200
     23 C         136.7264  143.3719  153.4312 C.3     1  UNL1        0.1749
     24 F         136.5519  143.8382  152.0164 F       1  UNL1       -0.2359
     25 H         139.3646  145.0555  154.9623 H       1  UNL1        0.1189
     26 H         138.3366  145.7898  153.8768 H       1  UNL1        0.1189
     27 S         142.4647  144.2161  163.1677 S.3     1  UNL1       -0.0780
     28 C         142.0144  143.5943  164.4563 C.ar    1  UNL1        0.0514
     29 C         140.5970  143.7651  164.9165 C.ar    1  UNL1        0.0095
     30 C         140.1467  143.1432  166.2052 C.ar    1  UNL1        0.0212
     31 C         141.1138  142.3504  167.0335 C.ar    1  UNL1        0.0988
     32 N         142.5312  142.1796  166.5733 N.ar    1  UNL1       -0.2394
     33 C         142.9815  142.8015  165.2848 C.ar    1  UNL1        0.1585
     34 C         144.3989  142.6306  164.8246 C.3     1  UNL1        0.4353
     35 F         145.8163  142.4598  164.3644 F       1  UNL1       -0.1644
     36 F         144.0300  141.3323  164.1701 F       1  UNL1       -0.1644
     37 F         144.7679  143.9289  165.4790 F       1  UNL1       -0.1644
@<TRIPOS>BOND
     1    13    12    1
     2    13    14    1
     3    14    15    1
     4    15    16    1
     5    16    17    1
     6    17    18    1
     7    18     1    1
     8     1     2   ar
     9     2     3   ar
    10     3     4    1
    11     3     5   ar
    12     5    27    1
    13    27    28    1
    14    28    29   ar
    15    29    30   ar
    16    30    31   ar
    17    31    32   ar
    18    32    33   ar
    19    33    34    1
    20    34    35    1
    21    34    36    1
    22    34    37    1
    23     5     6   ar
    24     6     7    2
    25     6     8   ar
    26     8     9    1
    27    18    19    1
    28    19    20    1
    29    15    21    1
    30    21    22    1
    31    21    23    1
    32    23    24    1
    33    23    13    1
    34    20    15    1
    35     8     1   ar
    36    33    28   ar
    37     4    10    1
    38     4    11    1
    39    22    25    1
    40    22    26    1
@<TRIPOS>MOLECULE
*****
 37 40 0 0 0
SMALL
GASTEIGER

@<TRIPOS>ATOM
      1 C         140.9021  142.6830  163.8739 C.ar    1  UNL1        0.2046
      2 N         139.4907  142.7603  163.3719 N.ar    1  UNL1       -0.1998
      3 C         139.2038  143.3679  162.0308 C.ar    1  UNL1        0.1389
      4 N         137.7924  143.4452  161.5288 N.pl3   1  UNL1       -0.3420
      5 C         140.3284  143.8981  161.1916 C.ar    1  UNL1        0.1169
      6 C         141.7398  143.8207  161.6936 C.ar    1  UNL1        0.2716
      7 O         142.8644  144.3509  160.8544 O.2     1  UNL1       -0.2663
      8 N         142.0266  143.2132  163.0347 N.ar    1  UNL1       -0.2662
      9 C         143.4381  143.1358  163.5367 C.3     1  UNL1        0.1363
     10 H         137.0543  143.0972  162.0796 H       1  UNL1        0.1437
     11 H         137.6042  143.8440  160.6486 H       1  UNL1        0.1437
     12 C         142.9948  138.0857  170.3158 C.3     1  UNL1        0.0029
     13 C         142.4609  139.3057  169.6254 C.3     1  UNL1        0.0340
     14 C         142.3467  139.5006  168.1424 C.3     1  UNL1        0.0042
     15 C         141.7626  140.8603  167.8972 C.3     1  UNL1        0.0190
     16 C         142.0639  140.0908  166.6453 C.3     1  UNL1        0.0229
     17 C         141.7771  140.6984  165.3043 C.3     1  UNL1        0.0936
     18 N         141.1889  142.0754  165.2150 N.pl3   1  UNL1       -0.2794
     19 C         140.8876  142.8448  166.4669 C.3     1  UNL1        0.0936
     20 C         141.1745  142.2373  167.8079 C.3     1  UNL1        0.0229
     21 C         141.5158  141.5057  169.2286 C.3     1  UNL1        0.0838
     22 N         140.9388  142.8720  169.4525 N.3     1  UNL1       -0.3200
     23 C         141.9473  140.5450  170.2966 C.3     1  UNL1        0.1749
     24 F         141.8775  140.7818  171.7761 F       1  UNL1       -0.2359
     25 H         140.7348  143.3066  168.5526 H       1  UNL1        0.1189
     26 H         141.6107  143.4455  169.9625 H       1  UNL1        0.1189
     27 S         140.0416  144.5056  159.8505 S.3     1  UNL1       -0.0780
     28 C         140.0789  143.6526  158.6173 C.ar    1  UNL1        0.0514
     29 C         139.2501  142.4045  158.5433 C.ar    1  UNL1        0.0095
     30 C         139.2874  141.5515  157.3100 C.ar    1  UNL1        0.0212
     31 C         140.1536  141.9465  156.1508 C.ar    1  UNL1        0.0988
     32 N         140.9824  143.1945  156.2248 N.ar    1  UNL1       -0.2394
     33 C         140.9451  144.0475  157.4580 C.ar    1  UNL1        0.1585
     34 C         141.7739  145.2956  157.5320 C.3     1  UNL1        0.4353
     35 F         142.6027  146.5436  157.6060 F       1  UNL1       -0.1644
     36 F         140.5744  146.1144  157.1566 F       1  UNL1       -0.1644
     37 F         142.9733  144.4768  157.9074 F       1  UNL1       -0.1644
@<TRIPOS>BOND
     1    13    12    1
     2    13    14    1
     3    14    15    1
     4    15    16    1
     5    16    17    1
     6    17    18    1
     7    18     1    1
     8     1     2   ar
     9     2     3   ar
    10     3     4    1
    11     3     5   ar
    12     5    27    1
    13    27    28    1
    14    28    29   ar
    15    29    30   ar
    16    30    31   ar
    17    31    32   ar
    18    32    33   ar
    19    33    34    1
    20    34    35    1
    21    34    36    1
    22    34    37    1
    23     5     6   ar
    24     6     7    2
    25     6     8   ar
    26     8     9    1
    27    18    19    1
    28    19    20    1
    29    15    21    1
    30    21    22    1
    31    21    23    1
    32    23    24    1
    33    23    13    1
    34    20    15    1
    35     8     1   ar
    36    33    28   ar
    37     4    10    1
    38     4    11    1
    39    22    25    1
    40    22    26    1
@<TRIPOS>MOLECULE
*****
 37 40 0 0 0
SMALL
GASTEIGER

@<TRIPOS>ATOM
      1 C         141.8778  139.8549  162.7250 C.ar    1  UNL1        0.2046
      2 N         142.4791  138.8928  163.7062 N.ar    1  UNL1       -0.1998
      3 C         142.7151  139.3181  165.1252 C.ar    1  UNL1        0.1389
      4 N         143.3164  138.3560  166.1064 N.pl3   1  UNL1       -0.3420
      5 C         142.3497  140.7054  165.5630 C.ar    1  UNL1        0.1169
      6 C         141.7484  141.6676  164.5817 C.ar    1  UNL1        0.2716
      7 O         141.3830  143.0550  165.0194 O.2     1  UNL1       -0.2663
      8 N         141.5125  141.2423  163.1628 N.ar    1  UNL1       -0.2662
      9 C         140.9111  142.2044  162.1815 C.3     1  UNL1        0.1363
     10 H         143.5562  137.4454  165.8191 H       1  UNL1        0.1437
     11 H         143.4712  138.6351  167.0377 H       1  UNL1        0.1437
     12 C         139.0702  137.2098  155.5047 C.3     1  UNL1        0.0029
     13 C         140.0963  137.7542  156.4537 C.3     1  UNL1        0.0340
     14 C         139.8816  138.0533  157.9079 C.3     1  UNL1        0.0042
     15 C         141.1699  138.5790  158.4681 C.3     1  UNL1        0.0190
     16 C         140.0573  138.4965  159.4707 C.3     1  UNL1        0.0229
     17 C         140.2933  138.9217  160.8896 C.3     1  UNL1        0.0936
     18 N         141.6419  139.4296  161.3060 N.pl3   1  UNL1       -0.2794
     19 C         142.7545  139.5122  160.3034 C.3     1  UNL1        0.0936
     20 C         142.5185  139.0869  158.8845 C.3     1  UNL1        0.0229
     21 C         142.1809  138.6048  157.3602 C.3     1  UNL1        0.0838
     22 N         143.6052  139.0604  157.4768 N.3     1  UNL1       -0.3200
     23 C         141.5174  138.0950  156.1153 C.3     1  UNL1        0.1749
     24 F         142.1617  137.9514  154.7684 F       1  UNL1       -0.2359
     25 H         143.7904  139.3555  158.4355 H       1  UNL1        0.1189
     26 H         143.7646  139.8437  156.8432 H       1  UNL1        0.1189
     27 S         142.5856  141.1308  166.9819 S.3     1  UNL1       -0.0780
     28 C         141.5260  140.9034  168.0190 C.ar    1  UNL1        0.0514
     29 C         140.2303  140.2513  167.6370 C.ar    1  UNL1        0.0095
     30 C         139.1707  140.0240  168.6742 C.ar    1  UNL1        0.0212
     31 C         139.4068  140.4488  170.0932 C.ar    1  UNL1        0.0988
     32 N         140.7025  141.1009  170.4752 N.ar    1  UNL1       -0.2394
     33 C         141.7621  141.3282  169.4381 C.ar    1  UNL1        0.1585
     34 C         143.0578  141.9803  169.8201 C.3     1  UNL1        0.4353
     35 F         144.3535  142.6324  170.2021 F       1  UNL1       -0.1644
     36 F         142.4717  143.3260  169.5111 F       1  UNL1       -0.1644
     37 F         143.6440  140.6346  170.1291 F       1  UNL1       -0.1644
@<TRIPOS>BOND
     1    13    12    1
     2    13    14    1
     3    14    15    1
     4    15    16    1
     5    16    17    1
     6    17    18    1
     7    18     1    1
     8     1     2   ar
     9     2     3   ar
    10     3     4    1
    11     3     5   ar
    12     5    27    1
    13    27    28    1
    14    28    29   ar
    15    29    30   ar
    16    30    31   ar
    17    31    32   ar
    18    32    33   ar
    19    33    34    1
    20    34    35    1
    21    34    36    1
    22    34    37    1
    23     5     6   ar
    24     6     7    2
    25     6     8   ar
    26     8     9    1
    27    18    19    1
    28    19    20    1
    29    15    21    1
    30    21    22    1
    31    21    23    1
    32    23    24    1
    33    23    13    1
    34    20    15    1
    35     8     1   ar
    36    33    28   ar
    37     4    10    1
    38     4    11    1
    39    22    25    1
    40    22    26    1
@<TRIPOS>MOLECULE
*****
 37 40 0 0 0
SMALL
GASTEIGER

@<TRIPOS>ATOM
      1 C         141.0690  143.0203  162.9171 C.ar    1  UNL1        0.2046
      2 N         142.1691  142.0612  163.2630 N.ar    1  UNL1       -0.1998
      3 C         142.4571  141.7363  164.6989 C.ar    1  UNL1        0.1389
      4 N         143.5572  140.7772  165.0447 N.pl3   1  UNL1       -0.3420
      5 C         141.6449  142.3707  165.7888 C.ar    1  UNL1        0.1169
      6 C         140.5447  143.3299  165.4428 C.ar    1  UNL1        0.2716
      7 O         139.7324  143.9642  166.5327 O.2     1  UNL1       -0.2663
      8 N         140.2567  143.6547  164.0070 N.ar    1  UNL1       -0.2662
      9 C         139.1565  144.6139  163.6611 C.3     1  UNL1        0.1363
     10 H         144.0903  140.3609  164.3294 H       1  UNL1        0.1437
     11 H         143.7462  140.5640  165.9871 H       1  UNL1        0.1437
     12 C         138.3198  143.6617  155.2331 C.3     1  UNL1        0.0029
     13 C         139.2061  143.9910  156.3976 C.3     1  UNL1        0.0340
     14 C         139.1365  143.3707  157.7617 C.3     1  UNL1        0.0042
     15 C         140.2050  143.9948  158.6097 C.3     1  UNL1        0.0190
     16 C         139.3865  142.9600  159.3233 C.3     1  UNL1        0.0229
     17 C         139.6745  142.6352  160.7591 C.3     1  UNL1        0.0936
     18 N         140.7810  143.3452  161.4813 N.pl3   1  UNL1       -0.2794
     19 C         141.5995  144.3799  160.7677 C.3     1  UNL1        0.0936
     20 C         141.3115  144.7047  159.3319 C.3     1  UNL1        0.0229
     21 C         140.9349  145.0007  157.7697 C.3     1  UNL1        0.0838
     22 N         142.0809  145.8583  158.2181 N.3     1  UNL1       -0.3200
     23 C         140.3175  144.9983  156.4026 C.3     1  UNL1        0.1749
     24 F         140.7378  145.8531  155.2440 F       1  UNL1       -0.2359
     25 H         142.2960  145.6550  159.1942 H       1  UNL1        0.1189
     26 H         141.8270  146.8416  158.1236 H       1  UNL1        0.1189
     27 S         141.9328  142.0459  167.2246 S.3     1  UNL1       -0.0780
     28 C         140.8603  141.4518  168.0887 C.ar    1  UNL1        0.0514
     29 C         139.9666  140.3777  167.5430 C.ar    1  UNL1        0.0095
     30 C         138.8941  139.7836  168.4073 C.ar    1  UNL1        0.0212
     31 C         138.7153  140.2635  169.8171 C.ar    1  UNL1        0.0988
     32 N         139.6090  141.3376  170.3628 N.ar    1  UNL1       -0.2394
     33 C         140.6815  141.9317  169.4986 C.ar    1  UNL1        0.1585
     34 C         141.5751  143.0058  170.0443 C.3     1  UNL1        0.4353
     35 F         142.4688  144.0798  170.5900 F       1  UNL1       -0.1644
     36 F         140.6226  144.0517  169.5455 F       1  UNL1       -0.1644
     37 F         142.5276  141.9598  170.5431 F       1  UNL1       -0.1644
@<TRIPOS>BOND
     1    13    12    1
     2    13    14    1
     3    14    15    1
     4    15    16    1
     5    16    17    1
     6    17    18    1
     7    18     1    1
     8     1     2   ar
     9     2     3   ar
    10     3     4    1
    11     3     5   ar
    12     5    27    1
    13    27    28    1
    14    28    29   ar
    15    29    30   ar
    16    30    31   ar
    17    31    32   ar
    18    32    33   ar
    19    33    34    1
    20    34    35    1
    21    34    36    1
    22    34    37    1
    23     5     6   ar
    24     6     7    2
    25     6     8   ar
    26     8     9    1
    27    18    19    1
    28    19    20    1
    29    15    21    1
    30    21    22    1
    31    21    23    1
    32    23    24    1
    33    23    13    1
    34    20    15    1
    35     8     1   ar
    36    33    28   ar
    37     4    10    1
    38     4    11    1
    39    22    25    1
    40    22    26    1
@<TRIPOS>MOLECULE
*****
 37 40 0 0 0
SMALL
GASTEIGER

@<TRIPOS>ATOM
      1 C         140.6417  139.7280  162.5936 C.ar    1  UNL1        0.2046
      2 N         139.6596  140.1713  161.5502 N.ar    1  UNL1       -0.1998
      3 C         139.8009  139.6927  160.1356 C.ar    1  UNL1        0.1389
      4 N         138.8188  140.1360  159.0921 N.pl3   1  UNL1       -0.3420
      5 C         140.9245  138.7708  159.7645 C.ar    1  UNL1        0.1169
      6 C         141.9067  138.3275  160.8080 C.ar    1  UNL1        0.2716
      7 O         143.0303  137.4056  160.4369 O.2     1  UNL1       -0.2663
      8 N         141.7653  138.8061  162.2225 N.ar    1  UNL1       -0.2662
      9 C         142.7475  138.3628  163.2660 C.3     1  UNL1        0.1363
     10 H         138.0813  140.7410  159.3357 H       1  UNL1        0.1437
     11 H         138.9116  139.8219  158.1637 H       1  UNL1        0.1437
     12 C         140.7467  143.6243  169.7922 C.3     1  UNL1        0.0029
     13 C         140.3958  142.5148  168.8458 C.3     1  UNL1        0.0340
     14 C         140.7749  142.4394  167.3963 C.3     1  UNL1        0.0042
     15 C         140.2177  141.1638  166.8372 C.3     1  UNL1        0.0190
     16 C         140.9737  141.9888  165.8384 C.3     1  UNL1        0.0229
     17 C         141.1151  141.5102  164.4239 C.3     1  UNL1        0.0936
     18 N         140.5004  140.2066  164.0082 N.pl3   1  UNL1       -0.2794
     19 C         139.7443  139.3816  165.0070 C.3     1  UNL1        0.0936
     20 C         139.6029  139.8602  166.4216 C.3     1  UNL1        0.0229
     21 C         139.4943  140.4509  167.9412 C.3     1  UNL1        0.0838
     22 N         138.7853  139.1343  167.8242 N.3     1  UNL1       -0.3200
     23 C         139.6044  141.2858  169.1824 C.3     1  UNL1        0.1749
     24 F         139.0248  140.9507  170.5247 F       1  UNL1       -0.2359
     25 H         138.8676  138.7875  166.8685 H       1  UNL1        0.1189
     26 H         137.7999  139.2568  168.0578 H       1  UNL1        0.1189
     27 S         141.0659  138.2922  158.3500 S.3     1  UNL1       -0.0780
     28 C         142.2589  138.6984  157.5365 C.ar    1  UNL1        0.0514
     29 C         142.7900  140.0980  157.6314 C.ar    1  UNL1        0.0095
     30 C         143.9831  140.5042  156.8179 C.ar    1  UNL1        0.0212
     31 C         144.6450  139.5108  155.9096 C.ar    1  UNL1        0.0988
     32 N         144.1139  138.1111  155.8148 N.ar    1  UNL1       -0.2394
     33 C         142.9209  137.7050  156.6282 C.ar    1  UNL1        0.1585
     34 C         142.3898  136.3053  156.5334 C.3     1  UNL1        0.4353
     35 F         141.8587  134.9057  156.4386 F       1  UNL1       -0.1644
     36 F         141.4633  136.7314  155.4334 F       1  UNL1       -0.1644
     37 F         143.3163  135.8792  157.6334 F       1  UNL1       -0.1644
@<TRIPOS>BOND
     1    13    12    1
     2    13    14    1
     3    14    15    1
     4    15    16    1
     5    16    17    1
     6    17    18    1
     7    18     1    1
     8     1     2   ar
     9     2     3   ar
    10     3     4    1
    11     3     5   ar
    12     5    27    1
    13    27    28    1
    14    28    29   ar
    15    29    30   ar
    16    30    31   ar
    17    31    32   ar
    18    32    33   ar
    19    33    34    1
    20    34    35    1
    21    34    36    1
    22    34    37    1
    23     5     6   ar
    24     6     7    2
    25     6     8   ar
    26     8     9    1
    27    18    19    1
    28    19    20    1
    29    15    21    1
    30    21    22    1
    31    21    23    1
    32    23    24    1
    33    23    13    1
    34    20    15    1
    35     8     1   ar
    36    33    28   ar
    37     4    10    1
    38     4    11    1
    39    22    25    1
    40    22    26    1
@<TRIPOS>MOLECULE
*****
 37 40 0 0 0
SMALL
GASTEIGER

@<TRIPOS>ATOM
      1 C         140.2024  139.0700  162.6217 C.ar    1  UNL1        0.2046
      2 N         141.4345  138.3181  162.2140 N.ar    1  UNL1       -0.1998
      3 C         141.6820  138.0124  160.7664 C.ar    1  UNL1        0.1389
      4 N         142.9141  137.2604  160.3586 N.pl3   1  UNL1       -0.3420
      5 C         140.6973  138.4587  159.7266 C.ar    1  UNL1        0.1169
      6 C         139.4651  139.2108  160.1344 C.ar    1  UNL1        0.2716
      7 O         138.4804  139.6571  159.0947 O.2     1  UNL1       -0.2663
      8 N         139.2176  139.5164  161.5819 N.ar    1  UNL1       -0.2662
      9 C         137.9854  140.2684  161.9898 C.3     1  UNL1        0.1363
     10 H         143.5604  136.9675  161.0411 H       1  UNL1        0.1437
     11 H         143.0766  137.0598  159.4086 H       1  UNL1        0.1437
     12 C         140.1063  141.7798  170.3457 C.3     1  UNL1        0.0029
     13 C         139.6434  140.9516  169.1840 C.3     1  UNL1        0.0340
     14 C         140.2274  140.9663  167.8023 C.3     1  UNL1        0.0042
     15 C         139.4600  139.9871  166.9643 C.3     1  UNL1        0.0190
     16 C         140.5608  140.6901  166.2268 C.3     1  UNL1        0.0229
     17 C         140.8083  140.3845  164.7793 C.3     1  UNL1        0.0936
     18 N         139.9549  139.3757  164.0693 N.pl3   1  UNL1       -0.2794
     19 C         138.8541  138.6726  164.8067 C.3     1  UNL1        0.0936
     20 C         138.6067  138.9783  166.2542 C.3     1  UNL1        0.0229
     21 C         138.4018  139.3671  167.8280 C.3     1  UNL1        0.0838
     22 N         137.4053  138.3327  167.3957 N.3     1  UNL1       -0.3200
     23 C         138.5151  139.9633  169.1998 C.3     1  UNL1        0.1749
     24 F         137.6517  139.6296  170.3801 F       1  UNL1       -0.2359
     25 H         137.5538  138.1077  166.4120 H       1  UNL1        0.1189
     26 H         136.4608  138.6966  167.5224 H       1  UNL1        0.1189
     27 S         140.9447  138.1531  158.2791 S.3     1  UNL1       -0.0780
     28 C         142.1425  138.7303  157.5848 C.ar    1  UNL1        0.0514
     29 C         142.5789  140.1339  157.8842 C.ar    1  UNL1        0.0095
     30 C         143.7768  140.7111  157.1899 C.ar    1  UNL1        0.0212
     31 C         144.5382  139.8847  156.1963 C.ar    1  UNL1        0.0988
     32 N         144.1018  138.4812  155.8969 N.ar    1  UNL1       -0.2394
     33 C         142.9040  137.9040  156.5911 C.ar    1  UNL1        0.1585
     34 C         142.4676  136.5004  156.2918 C.3     1  UNL1        0.4353
     35 F         142.0312  135.0969  155.9924 F       1  UNL1       -0.1644
     36 F         141.6124  137.0061  155.1679 F       1  UNL1       -0.1644
     37 F         143.3228  135.9948  157.4156 F       1  UNL1       -0.1644
@<TRIPOS>BOND
     1    13    12    1
     2    13    14    1
     3    14    15    1
     4    15    16    1
     5    16    17    1
     6    17    18    1
     7    18     1    1
     8     1     2   ar
     9     2     3   ar
    10     3     4    1
    11     3     5   ar
    12     5    27    1
    13    27    28    1
    14    28    29   ar
    15    29    30   ar
    16    30    31   ar
    17    31    32   ar
    18    32    33   ar
    19    33    34    1
    20    34    35    1
    21    34    36    1
    22    34    37    1
    23     5     6   ar
    24     6     7    2
    25     6     8   ar
    26     8     9    1
    27    18    19    1
    28    19    20    1
    29    15    21    1
    30    21    22    1
    31    21    23    1
    32    23    24    1
    33    23    13    1
    34    20    15    1
    35     8     1   ar
    36    33    28   ar
    37     4    10    1
    38     4    11    1
    39    22    25    1
    40    22    26    1
@<TRIPOS>MOLECULE
*****
 37 40 0 0 0
SMALL
GASTEIGER

@<TRIPOS>ATOM
      1 C         140.8946  139.9297  163.2284 C.ar    1  UNL1        0.2046
      2 N         141.6762  141.1258  163.6846 N.ar    1  UNL1       -0.1998
      3 C         141.4940  141.6546  165.0765 C.ar    1  UNL1        0.1389
      4 N         142.2756  142.8507  165.5328 N.pl3   1  UNL1       -0.3420
      5 C         140.5301  140.9870  166.0121 C.ar    1  UNL1        0.1169
      6 C         139.7485  139.7908  165.5558 C.ar    1  UNL1        0.2716
      7 O         138.7846  139.1233  166.4914 O.2     1  UNL1       -0.2663
      8 N         139.9307  139.2622  164.1640 N.ar    1  UNL1       -0.2662
      9 C         139.1491  138.0659  163.7077 C.3     1  UNL1        0.1363
     10 H         142.9082  143.2888  164.9187 H       1  UNL1        0.1437
     11 H         142.1560  143.1977  166.4463 H       1  UNL1        0.1437
     12 C         143.3338  136.5145  156.1999 C.3     1  UNL1        0.0029
     13 C         142.3951  137.2598  157.1017 C.3     1  UNL1        0.0340
     14 C         142.6377  137.5957  158.5434 C.3     1  UNL1        0.0042
     15 C         141.4414  138.3436  159.0529 C.3     1  UNL1        0.0190
     16 C         142.5162  138.1400  160.0792 C.3     1  UNL1        0.0229
     17 C         142.3339  138.6687  161.4710 C.3     1  UNL1        0.0936
     18 N         141.0769  139.4010  161.8365 N.pl3   1  UNL1       -0.2794
     19 C         140.0021  139.6045  160.8102 C.3     1  UNL1        0.0936
     20 C         140.1843  139.0758  159.4184 C.3     1  UNL1        0.0229
     21 C         140.4593  138.4699  157.9260 C.3     1  UNL1        0.0838
     22 N         139.1226  139.1471  157.9933 N.3     1  UNL1       -0.3200
     23 C         141.0487  137.8001  156.7202 C.3     1  UNL1        0.1749
     24 F         140.4048  137.6899  155.3700 F       1  UNL1       -0.2359
     25 H         138.9753  139.5159  158.9328 H       1  UNL1        0.1189
     26 H         138.3888  138.4736  157.7735 H       1  UNL1        0.1189
     27 S         140.3478  141.5157  167.4040 S.3     1  UNL1       -0.0780
     28 C         141.1580  140.9508  168.5329 C.ar    1  UNL1        0.0514
     29 C         141.8753  139.6447  168.3610 C.ar    1  UNL1        0.0095
     30 C         142.6856  139.0798  169.4900 C.ar    1  UNL1        0.0212
     31 C         142.7785  139.8210  170.7907 C.ar    1  UNL1        0.0988
     32 N         142.0612  141.1271  170.9625 N.ar    1  UNL1       -0.2394
     33 C         141.2510  141.6920  169.8337 C.ar    1  UNL1        0.1585
     34 C         140.5337  142.9981  170.0055 C.3     1  UNL1        0.4353
     35 F         139.8164  144.3043  170.1774 F       1  UNL1       -0.1644
     36 F         141.7986  143.7357  169.6799 F       1  UNL1       -0.1644
     37 F         139.2687  142.2606  170.3311 F       1  UNL1       -0.1644
@<TRIPOS>BOND
     1    13    12    1
     2    13    14    1
     3    14    15    1
     4    15    16    1
     5    16    17    1
     6    17    18    1
     7    18     1    1
     8     1     2   ar
     9     2     3   ar
    10     3     4    1
    11     3     5   ar
    12     5    27    1
    13    27    28    1
    14    28    29   ar
    15    29    30   ar
    16    30    31   ar
    17    31    32   ar
    18    32    33   ar
    19    33    34    1
    20    34    35    1
    21    34    36    1
    22    34    37    1
    23     5     6   ar
    24     6     7    2
    25     6     8   ar
    26     8     9    1
    27    18    19    1
    28    19    20    1
    29    15    21    1
    30    21    22    1
    31    21    23    1
    32    23    24    1
    33    23    13    1
    34    20    15    1
    35     8     1   ar
    36    33    28   ar
    37     4    10    1
    38     4    11    1
    39    22    25    1
    40    22    26    1
