@<TRIPOS>MOLECULE
*****
 29 32 0 0 0
SMALL
GASTEIGER

@<TRIPOS>ATOM
      1 C         141.1490  145.2874  158.0197 C.3     1  UNL1        0.2495
      2 O         142.4138  144.6589  157.5146 O.3     1  UNL1       -0.4307
      3 C         142.9376  143.7472  158.5844 C.2     1  UNL1        0.4078
      4 O         144.1838  142.9163  158.5023 O.2     1  UNL1       -0.2261
      5 N         141.9965  143.8122  159.7506 N.am    1  UNL1       -0.2057
      6 C         142.0034  143.1277  161.0853 C.3     1  UNL1        0.1299
      7 C         140.9048  143.3951  162.0709 C.ar    1  UNL1        0.0321
      8 C         140.9116  142.7105  163.4056 C.ar    1  UNL1        0.0027
      9 C         139.8130  142.9779  164.3912 C.ar    1  UNL1        0.0289
     10 C         138.7075  143.9298  164.0422 C.ar    1  UNL1        0.1431
     11 F         137.6089  144.1971  165.0280 F       1  UNL1       -0.2041
     12 C         138.7007  144.6143  162.7076 C.ar    1  UNL1        0.0663
     13 C         139.7993  144.3470  161.7219 C.ar    1  UNL1        0.1405
     14 O         139.7925  145.0315  160.3873 O.3     1  UNL1       -0.4565
     15 C         140.8911  144.7642  159.4016 C.3     1  UNL1        0.2911
     16 C         139.8198  142.2933  165.7260 C.ar    1  UNL1        0.0214
     17 C         140.3578  143.0056  166.9314 C.ar    1  UNL1        0.0039
     18 C         140.3647  142.3211  168.2661 C.ar    1  UNL1        0.0297
     19 C         139.8334  140.9243  168.3953 C.ar    1  UNL1        0.1492
     20 N         139.2954  140.2120  167.1898 N.ar    1  UNL1       -0.2335
     21 C         139.2885  140.8965  165.8552 C.ar    1  UNL1        0.0997
     22 C         139.8402  140.2397  169.7300 C.1     1  UNL1        0.1198
     23 N         139.8471  139.5552  171.0647 N.1     1  UNL1       -0.1893
     24 C         140.2924  146.2672  157.2738 C.3     1  UNL1        0.1392
     25 C         140.2581  148.1804  153.7970 C.3     1  UNL1        0.0946
     26 C         139.8674  147.7412  155.1769 C.2     1  UNL1        0.2231
     27 O         138.6609  148.3367  155.8401 O.2     1  UNL1       -0.2751
     28 N         140.6831  146.7064  155.8937 N.am    1  UNL1       -0.3010
     29 H         141.4749  146.3156  155.4585 H       1  UNL1        0.1495
@<TRIPOS>BOND
     1    25    26    1
     2    26    27    2
     3    26    28   am
     4    28    24    1
     5     1    24    1
     6     1     2    1
     7     2     3    1
     8     3     4    2
     9     3     5   am
    10     5     6    1
    11     6     7    1
    12     7     8   ar
    13     8     9   ar
    14     9    16    1
    15    16    17   ar
    16    17    18   ar
    17    18    19   ar
    18    19    22    1
    19    22    23    3
    20    19    20   ar
    21    20    21   ar
    22     9    10   ar
    23    10    11    1
    24    10    12   ar
    25    12    13   ar
    26    13    14    1
    27    15    14    1
    28    15     1    1
    29    15     5    1
    30    13     7   ar
    31    21    16   ar
    32    28    29    1
@<TRIPOS>MOLECULE
*****
 29 32 0 0 0
SMALL
GASTEIGER

@<TRIPOS>ATOM
      1 C         143.1133  138.7216  157.9380 C.3     1  UNL1        0.2495
      2 O         143.8772  139.9507  157.5433 O.3     1  UNL1       -0.4307
      3 C         144.0223  140.8167  158.7595 C.2     1  UNL1        0.4078
      4 O         144.7193  142.1436  158.8189 O.2     1  UNL1       -0.2261
      5 N         143.3480  140.1229  159.9058 N.am    1  UNL1       -0.2057
      6 C         143.1731  140.5029  161.3462 C.3     1  UNL1        0.1299
      7 C         142.4362  139.5880  162.2790 C.ar    1  UNL1        0.0321
      8 C         142.2612  139.9680  163.7195 C.ar    1  UNL1        0.0027
      9 C         141.5244  139.0531  164.6523 C.ar    1  UNL1        0.0289
     10 C         140.9626  137.7583  164.1446 C.ar    1  UNL1        0.1431
     11 F         140.2257  136.8434  165.0775 F       1  UNL1       -0.2041
     12 C         141.1375  137.3783  162.7041 C.ar    1  UNL1        0.0663
     13 C         141.8744  138.2932  161.7713 C.ar    1  UNL1        0.1405
     14 O         142.0494  137.9132  160.3308 O.3     1  UNL1       -0.4565
     15 C         142.7862  138.8280  159.3981 C.3     1  UNL1        0.2911
     16 C         141.3494  139.4331  166.0928 C.ar    1  UNL1        0.0214
     17 C         139.9992  139.8429  166.6016 C.ar    1  UNL1        0.0039
     18 C         139.8241  140.2229  168.0421 C.ar    1  UNL1        0.0297
     19 C         140.9993  140.1930  168.9737 C.ar    1  UNL1        0.1492
     20 N         142.3495  139.7832  168.4649 N.ar    1  UNL1       -0.2335
     21 C         142.5246  139.4033  167.0244 C.ar    1  UNL1        0.0997
     22 C         140.8243  140.5730  170.4143 C.1     1  UNL1        0.1198
     23 N         140.6493  140.9529  171.8547 N.1     1  UNL1       -0.1893
     24 C         142.7416  137.5856  157.0318 C.3     1  UNL1        0.1392
     25 C         143.5008  133.6967  157.2554 C.3     1  UNL1        0.0946
     26 C         143.4639  135.1065  156.7445 C.2     1  UNL1        0.2231
     27 O         144.1123  135.4471  155.4355 O.2     1  UNL1       -0.2751
     28 N         142.7785  136.1757  157.5427 N.am    1  UNL1       -0.3010
     29 H         142.3530  135.9521  158.4018 H       1  UNL1        0.1495
@<TRIPOS>BOND
     1    25    26    1
     2    26    27    2
     3    26    28   am
     4    28    24    1
     5     1    24    1
     6     1     2    1
     7     2     3    1
     8     3     4    2
     9     3     5   am
    10     5     6    1
    11     6     7    1
    12     7     8   ar
    13     8     9   ar
    14     9    16    1
    15    16    17   ar
    16    17    18   ar
    17    18    19   ar
    18    19    22    1
    19    22    23    3
    20    19    20   ar
    21    20    21   ar
    22     9    10   ar
    23    10    11    1
    24    10    12   ar
    25    12    13   ar
    26    13    14    1
    27    15    14    1
    28    15     1    1
    29    15     5    1
    30    13     7   ar
    31    21    16   ar
    32    28    29    1
@<TRIPOS>MOLECULE
*****
 29 32 0 0 0
SMALL
GASTEIGER

@<TRIPOS>ATOM
      1 C         139.9201  140.2901  168.8336 C.3     1  UNL1        0.2495
      2 O         138.6448  139.5116  168.7003 O.3     1  UNL1       -0.4307
      3 C         138.4870  139.1236  167.2600 C.2     1  UNL1        0.4078
      4 O         137.3510  138.3354  166.6786 O.2     1  UNL1       -0.2261
      5 N         139.6647  139.6622  166.5031 N.am    1  UNL1       -0.2057
      6 C         140.0451  139.5894  165.0540 C.3     1  UNL1        0.1299
      7 C         141.3111  140.2374  164.5774 C.ar    1  UNL1        0.0321
      8 C         141.6914  140.1646  163.1282 C.ar    1  UNL1        0.0027
      9 C         142.9575  140.8127  162.6516 C.ar    1  UNL1        0.0289
     10 C         143.8431  141.5336  163.6241 C.ar    1  UNL1        0.1431
     11 F         145.1092  142.1817  163.1475 F       1  UNL1       -0.2041
     12 C         143.4628  141.6064  165.0733 C.ar    1  UNL1        0.0663
     13 C         142.1968  140.9584  165.5499 C.ar    1  UNL1        0.1405
     14 O         141.8164  141.0312  166.9990 O.3     1  UNL1       -0.4565
     15 C         140.5504  140.3831  167.4756 C.3     1  UNL1        0.2911
     16 C         143.3378  140.7398  161.2024 C.ar    1  UNL1        0.0214
     17 C         143.3898  141.9911  160.3769 C.ar    1  UNL1        0.0039
     18 C         143.7701  141.9184  158.9277 C.ar    1  UNL1        0.0297
     19 C         144.0985  140.5943  158.3042 C.ar    1  UNL1        0.1492
     20 N         144.0466  139.3430  159.1297 N.ar    1  UNL1       -0.2335
     21 C         143.6662  139.4157  160.5788 C.ar    1  UNL1        0.0997
     22 C         144.4789  140.5214  156.8550 C.1     1  UNL1        0.1198
     23 N         144.8593  140.4486  155.4059 N.1     1  UNL1       -0.1893
     24 C         140.4687  140.8731  170.1021 C.3     1  UNL1        0.1392
     25 C         144.1018  142.4677  170.0113 C.3     1  UNL1        0.0946
     26 C         143.0019  141.4494  170.0682 C.2     1  UNL1        0.2231
     27 O         143.3352  139.9891  170.1480 O.2     1  UNL1       -0.2751
     28 N         141.5687  141.8914  170.0452 N.am    1  UNL1       -0.3010
     29 H         141.3500  142.8499  169.9928 H       1  UNL1        0.1495
@<TRIPOS>BOND
     1    25    26    1
     2    26    27    2
     3    26    28   am
     4    28    24    1
     5     1    24    1
     6     1     2    1
     7     2     3    1
     8     3     4    2
     9     3     5   am
    10     5     6    1
    11     6     7    1
    12     7     8   ar
    13     8     9   ar
    14     9    16    1
    15    16    17   ar
    16    17    18   ar
    17    18    19   ar
    18    19    22    1
    19    22    23    3
    20    19    20   ar
    21    20    21   ar
    22     9    10   ar
    23    10    11    1
    24    10    12   ar
    25    12    13   ar
    26    13    14    1
    27    15    14    1
    28    15     1    1
    29    15     5    1
    30    13     7   ar
    31    21    16   ar
    32    28    29    1
@<TRIPOS>MOLECULE
*****
 29 32 0 0 0
SMALL
GASTEIGER

@<TRIPOS>ATOM
      1 C         140.3806  140.4124  168.7406 C.3     1  UNL1        0.2495
      2 O         139.1766  139.5304  168.5912 O.3     1  UNL1       -0.4307
      3 C         138.7335  139.5894  167.1594 C.2     1  UNL1        0.4078
      4 O         137.5654  138.8583  166.5670 O.2     1  UNL1       -0.2261
      5 N         139.6637  140.5079  166.4238 N.am    1  UNL1       -0.2057
      6 C         139.7153  140.9469  164.9904 C.3     1  UNL1        0.1299
      7 C         140.7849  141.8945  164.5343 C.ar    1  UNL1        0.0321
      8 C         140.8365  142.3334  163.1008 C.ar    1  UNL1        0.0027
      9 C         141.9061  143.2810  162.6447 C.ar    1  UNL1        0.0289
     10 C         142.9240  143.7897  163.6220 C.ar    1  UNL1        0.1431
     11 F         143.9936  144.7373  163.1658 F       1  UNL1       -0.2041
     12 C         142.8724  143.3508  165.0553 C.ar    1  UNL1        0.0663
     13 C         141.8028  142.4031  165.5115 C.ar    1  UNL1        0.1405
     14 O         141.7512  141.9642  166.9449 O.3     1  UNL1       -0.4565
     15 C         140.6817  141.0166  167.4010 C.3     1  UNL1        0.2911
     16 C         141.9577  143.7200  161.2112 C.ar    1  UNL1        0.0214
     17 C         140.9287  144.6742  160.6815 C.ar    1  UNL1        0.0039
     18 C         140.9803  145.1131  159.2482 C.ar    1  UNL1        0.0297
     19 C         142.0609  144.5979  158.3445 C.ar    1  UNL1        0.1492
     20 N         143.0900  143.6438  158.8742 N.ar    1  UNL1       -0.2335
     21 C         143.0384  143.2048  160.3076 C.ar    1  UNL1        0.0997
     22 C         142.1126  145.0369  156.9110 C.1     1  UNL1        0.1198
     23 N         142.1642  145.4758  155.4777 N.1     1  UNL1       -0.1893
     24 C         141.1487  140.6489  170.0071 C.3     1  UNL1        0.1392
     25 C         144.4994  142.7748  170.0636 C.3     1  UNL1        0.0946
     26 C         143.0424  142.4238  170.1246 C.2     1  UNL1        0.2231
     27 O         142.0218  143.4967  170.3640 O.2     1  UNL1       -0.2751
     28 N         142.6059  140.9999  169.9461 N.am    1  UNL1       -0.3010
     29 H         143.2757  140.2957  169.7890 H       1  UNL1        0.1495
@<TRIPOS>BOND
     1    25    26    1
     2    26    27    2
     3    26    28   am
     4    28    24    1
     5     1    24    1
     6     1     2    1
     7     2     3    1
     8     3     4    2
     9     3     5   am
    10     5     6    1
    11     6     7    1
    12     7     8   ar
    13     8     9   ar
    14     9    16    1
    15    16    17   ar
    16    17    18   ar
    17    18    19   ar
    18    19    22    1
    19    22    23    3
    20    19    20   ar
    21    20    21   ar
    22     9    10   ar
    23    10    11    1
    24    10    12   ar
    25    12    13   ar
    26    13    14    1
    27    15    14    1
    28    15     1    1
    29    15     5    1
    30    13     7   ar
    31    21    16   ar
    32    28    29    1
@<TRIPOS>MOLECULE
*****
 29 32 0 0 0
SMALL
GASTEIGER

@<TRIPOS>ATOM
      1 C         144.5895  141.2503  157.8225 C.3     1  UNL1        0.2495
      2 O         144.0570  139.9016  157.4385 O.3     1  UNL1       -0.4307
      3 C         143.3473  139.3274  158.6288 C.2     1  UNL1        0.4078
      4 O         142.6637  137.9936  158.6889 O.2     1  UNL1       -0.2261
      5 N         143.4412  140.3213  159.7484 N.am    1  UNL1       -0.2057
      6 C         142.9268  140.2976  161.1572 C.3     1  UNL1        0.1299
      7 C         143.1802  141.4624  162.0677 C.ar    1  UNL1        0.0321
      8 C         142.6659  141.4388  163.4766 C.ar    1  UNL1        0.0027
      9 C         142.9192  142.6035  164.3872 C.ar    1  UNL1        0.0289
     10 C         143.6870  143.7919  163.8889 C.ar    1  UNL1        0.1431
     11 F         143.9404  144.9567  164.7995 F       1  UNL1       -0.2041
     12 C         144.2014  143.8155  162.4801 C.ar    1  UNL1        0.0663
     13 C         143.9480  142.6507  161.5694 C.ar    1  UNL1        0.1405
     14 O         144.4624  142.6744  160.1606 O.3     1  UNL1       -0.4565
     15 C         144.2090  141.5096  159.2501 C.3     1  UNL1        0.2911
     16 C         142.4049  142.5799  165.7961 C.ar    1  UNL1        0.0214
     17 C         143.3460  142.3153  166.9337 C.ar    1  UNL1        0.0039
     18 C         142.8317  142.2917  168.3426 C.ar    1  UNL1        0.0297
     19 C         141.3763  142.5327  168.6138 C.ar    1  UNL1        0.1492
     20 N         140.4351  142.7973  167.4761 N.ar    1  UNL1       -0.2335
     21 C         140.9494  142.8209  166.0673 C.ar    1  UNL1        0.0997
     22 C         140.8619  142.5091  170.0227 C.1     1  UNL1        0.1198
     23 N         140.3476  142.4855  171.4315 N.1     1  UNL1       -0.1893
     24 C         145.3663  142.1769  156.9348 C.3     1  UNL1        0.1392
     25 C         149.0551  141.7381  155.5385 C.3     1  UNL1        0.0946
     26 C         147.5584  141.8239  155.5856 C.2     1  UNL1        0.2231
     27 O         146.7568  141.6426  154.3308 O.2     1  UNL1       -0.2751
     28 N         146.8631  142.0911  156.8876 N.am    1  UNL1       -0.3010
     29 H         147.3892  142.2101  157.7112 H       1  UNL1        0.1495
@<TRIPOS>BOND
     1    25    26    1
     2    26    27    2
     3    26    28   am
     4    28    24    1
     5     1    24    1
     6     1     2    1
     7     2     3    1
     8     3     4    2
     9     3     5   am
    10     5     6    1
    11     6     7    1
    12     7     8   ar
    13     8     9   ar
    14     9    16    1
    15    16    17   ar
    16    17    18   ar
    17    18    19   ar
    18    19    22    1
    19    22    23    3
    20    19    20   ar
    21    20    21   ar
    22     9    10   ar
    23    10    11    1
    24    10    12   ar
    25    12    13   ar
    26    13    14    1
    27    15    14    1
    28    15     1    1
    29    15     5    1
    30    13     7   ar
    31    21    16   ar
    32    28    29    1
@<TRIPOS>MOLECULE
*****
 29 32 0 0 0
SMALL
GASTEIGER

@<TRIPOS>ATOM
      1 C         141.8391  139.8781  168.8184 C.3     1  UNL1        0.2495
      2 O         143.0408  138.9935  168.6657 O.3     1  UNL1       -0.4307
      3 C         143.2103  138.6897  167.2066 C.2     1  UNL1        0.4078
      4 O         144.2876  137.8385  166.6026 O.2     1  UNL1       -0.2261
      5 N         142.1133  139.3865  166.4576 N.am    1  UNL1       -0.2057
      6 C         141.7766  139.4471  164.9971 C.3     1  UNL1        0.1299
      7 C         140.5924  140.2421  164.5328 C.ar    1  UNL1        0.0321
      8 C         140.2557  140.3028  163.0723 C.ar    1  UNL1        0.0027
      9 C         139.0716  141.0978  162.6081 C.ar    1  UNL1        0.0289
     10 C         138.2241  141.8323  163.6042 C.ar    1  UNL1        0.1431
     11 F         137.0399  142.6275  163.1399 F       1  UNL1       -0.2041
     12 C         138.5608  141.7718  165.0646 C.ar    1  UNL1        0.0663
     13 C         139.7450  140.9766  165.5290 C.ar    1  UNL1        0.1405
     14 O         140.0817  140.9161  166.9894 O.3     1  UNL1       -0.4565
     15 C         141.2658  140.1210  167.4537 C.3     1  UNL1        0.2911
     16 C         138.7348  141.1585  161.1475 C.ar    1  UNL1        0.0214
     17 C         139.0685  142.3851  160.3512 C.ar    1  UNL1        0.0039
     18 C         138.7318  142.4457  158.8908 C.ar    1  UNL1        0.0297
     19 C         138.0614  141.2798  158.2267 C.ar    1  UNL1        0.1492
     20 N         137.7277  140.0532  159.0230 N.ar    1  UNL1       -0.2335
     21 C         138.0644  139.9925  160.4834 C.ar    1  UNL1        0.0997
     22 C         137.7247  141.3404  156.7662 C.1     1  UNL1        0.1198
     23 N         137.3879  141.4010  155.3058 N.1     1  UNL1       -0.1893
     24 C         141.3044  140.4240  170.1092 C.3     1  UNL1        0.1392
     25 C         140.3174  144.2642  169.9391 C.3     1  UNL1        0.0946
     26 C         141.1425  143.0115  169.9391 C.2     1  UNL1        0.2231
     27 O         142.6305  143.0934  169.7690 O.2     1  UNL1       -0.2751
     28 N         140.4794  141.6768  170.1092 N.am    1  UNL1       -0.3010
     29 H         139.5027  141.6230  170.2209 H       1  UNL1        0.1495
@<TRIPOS>BOND
     1    25    26    1
     2    26    27    2
     3    26    28   am
     4    28    24    1
     5     1    24    1
     6     1     2    1
     7     2     3    1
     8     3     4    2
     9     3     5   am
    10     5     6    1
    11     6     7    1
    12     7     8   ar
    13     8     9   ar
    14     9    16    1
    15    16    17   ar
    16    17    18   ar
    17    18    19   ar
    18    19    22    1
    19    22    23    3
    20    19    20   ar
    21    20    21   ar
    22     9    10   ar
    23    10    11    1
    24    10    12   ar
    25    12    13   ar
    26    13    14    1
    27    15    14    1
    28    15     1    1
    29    15     5    1
    30    13     7   ar
    31    21    16   ar
    32    28    29    1
@<TRIPOS>MOLECULE
*****
 29 32 0 0 0
SMALL
GASTEIGER

@<TRIPOS>ATOM
      1 C         142.0375  140.1099  168.7696 C.3     1  UNL1        0.2495
      2 O         142.9242  138.9265  168.5182 O.3     1  UNL1       -0.4307
      3 C         143.2069  138.8635  167.0464 C.2     1  UNL1        0.4078
      4 O         144.0530  137.8363  166.3543 O.2     1  UNL1       -0.2261
      5 N         142.4949  140.0080  166.3882 N.am    1  UNL1       -0.2057
      6 C         142.4114  140.4482  164.9567 C.3     1  UNL1        0.1299
      7 C         141.6051  141.6588  164.5902 C.ar    1  UNL1        0.0321
      8 C         141.5215  142.0991  163.1587 C.ar    1  UNL1        0.0027
      9 C         140.7152  143.3097  162.7922 C.ar    1  UNL1        0.0289
     10 C         139.9925  144.0801  163.8572 C.ar    1  UNL1        0.1431
     11 F         139.1862  145.2907  163.4907 F       1  UNL1       -0.2041
     12 C         140.0761  143.6398  165.2887 C.ar    1  UNL1        0.0663
     13 C         140.8824  142.4292  165.6552 C.ar    1  UNL1        0.1405
     14 O         140.9659  141.9889  167.0867 O.3     1  UNL1       -0.4565
     15 C         141.7722  140.7784  167.4532 C.3     1  UNL1        0.2911
     16 C         140.6316  143.7500  161.3607 C.ar    1  UNL1        0.0214
     17 C         139.6559  143.0933  160.4298 C.ar    1  UNL1        0.0039
     18 C         139.5722  143.5335  158.9983 C.ar    1  UNL1        0.0297
     19 C         140.4644  144.6305  158.4977 C.ar    1  UNL1        0.1492
     20 N         141.4402  145.2872  159.4286 N.ar    1  UNL1       -0.2335
     21 C         141.5238  144.8470  160.8601 C.ar    1  UNL1        0.0997
     22 C         140.3808  145.0708  157.0662 C.1     1  UNL1        0.1198
     23 N         140.2972  145.5111  155.6348 N.1     1  UNL1       -0.1893
     24 C         141.5089  140.5481  170.1032 C.3     1  UNL1        0.1392
     25 C         140.3786  144.3507  170.2155 C.3     1  UNL1        0.0946
     26 C         141.2491  143.1331  170.1170 C.2     1  UNL1        0.2231
     27 O         142.7303  143.2830  169.9337 O.2     1  UNL1       -0.2751
     28 N         140.6384  141.7657  170.2017 N.am    1  UNL1       -0.3010
     29 H         139.6662  141.6674  170.3220 H       1  UNL1        0.1495
@<TRIPOS>BOND
     1    25    26    1
     2    26    27    2
     3    26    28   am
     4    28    24    1
     5     1    24    1
     6     1     2    1
     7     2     3    1
     8     3     4    2
     9     3     5   am
    10     5     6    1
    11     6     7    1
    12     7     8   ar
    13     8     9   ar
    14     9    16    1
    15    16    17   ar
    16    17    18   ar
    17    18    19   ar
    18    19    22    1
    19    22    23    3
    20    19    20   ar
    21    20    21   ar
    22     9    10   ar
    23    10    11    1
    24    10    12   ar
    25    12    13   ar
    26    13    14    1
    27    15    14    1
    28    15     1    1
    29    15     5    1
    30    13     7   ar
    31    21    16   ar
    32    28    29    1
@<TRIPOS>MOLECULE
*****
 29 32 0 0 0
SMALL
GASTEIGER

@<TRIPOS>ATOM
      1 C         141.4887  137.8249  157.5288 C.3     1  UNL1        0.2495
      2 O         140.1297  138.3118  157.1214 O.3     1  UNL1       -0.4307
      3 C         139.5621  139.1076  158.2592 C.2     1  UNL1        0.4078
      4 O         138.2217  139.7803  158.2825 O.2     1  UNL1       -0.2261
      5 N         140.5704  139.1125  159.3698 N.am    1  UNL1       -0.2057
      6 C         140.5581  139.7364  160.7338 C.3     1  UNL1        0.1299
      7 C         141.7365  139.5675  161.6464 C.ar    1  UNL1        0.0321
      8 C         141.7243  140.1914  163.0105 C.ar    1  UNL1        0.0027
      9 C         142.9027  140.0226  163.9230 C.ar    1  UNL1        0.0289
     10 C         144.0934  139.2298  163.4716 C.ar    1  UNL1        0.1431
     11 F         145.2719  139.0610  164.3842 F       1  UNL1       -0.2041
     12 C         144.1057  138.6059  162.1076 C.ar    1  UNL1        0.0663
     13 C         142.9272  138.7748  161.1949 C.ar    1  UNL1        0.1405
     14 O         142.9395  138.1509  159.8309 O.3     1  UNL1       -0.4565
     15 C         141.7611  138.3197  158.9184 C.3     1  UNL1        0.2911
     16 C         142.8905  140.6465  165.2871 C.ar    1  UNL1        0.0214
     17 C         142.3380  139.8848  166.4553 C.ar    1  UNL1        0.0039
     18 C         142.3257  140.5086  167.8193 C.ar    1  UNL1        0.0297
     19 C         142.8660  141.8942  168.0152 C.ar    1  UNL1        0.1492
     20 N         143.4184  142.6559  166.8470 N.ar    1  UNL1       -0.2335
     21 C         143.4307  142.0320  165.4830 C.ar    1  UNL1        0.0997
     22 C         142.8537  142.5181  169.3793 C.1     1  UNL1        0.1198
     23 N         142.8415  143.1419  170.7433 N.1     1  UNL1       -0.1893
     24 C         142.4131  136.9898  156.6933 C.3     1  UNL1        0.1392
     25 C         144.1000  133.5474  157.7203 C.3     1  UNL1        0.0946
     26 C         143.1827  134.5360  157.0636 C.2     1  UNL1        0.2231
     27 O         142.1178  134.0597  156.1208 O.2     1  UNL1       -0.2751
     28 N         143.3304  136.0010  157.3499 N.am    1  UNL1       -0.3010
     29 H         144.0293  136.3137  157.9687 H       1  UNL1        0.1495
@<TRIPOS>BOND
     1    25    26    1
     2    26    27    2
     3    26    28   am
     4    28    24    1
     5     1    24    1
     6     1     2    1
     7     2     3    1
     8     3     4    2
     9     3     5   am
    10     5     6    1
    11     6     7    1
    12     7     8   ar
    13     8     9   ar
    14     9    16    1
    15    16    17   ar
    16    17    18   ar
    17    18    19   ar
    18    19    22    1
    19    22    23    3
    20    19    20   ar
    21    20    21   ar
    22     9    10   ar
    23    10    11    1
    24    10    12   ar
    25    12    13   ar
    26    13    14    1
    27    15    14    1
    28    15     1    1
    29    15     5    1
    30    13     7   ar
    31    21    16   ar
    32    28    29    1
@<TRIPOS>MOLECULE
*****
 29 32 0 0 0
SMALL
GASTEIGER

@<TRIPOS>ATOM
      1 C         144.2697  141.9388  158.0980 C.3     1  UNL1        0.2495
      2 O         143.5696  143.1691  157.6017 O.3     1  UNL1       -0.4307
      3 C         142.8491  143.7916  158.7607 C.2     1  UNL1        0.4078
      4 O         142.0194  145.0404  158.7152 O.2     1  UNL1       -0.2261
      5 N         143.1039  142.9461  159.9732 N.am    1  UNL1       -0.2057
      6 C         142.6498  143.0709  161.3974 C.3     1  UNL1        0.1299
      7 C         143.0737  142.0506  162.4119 C.ar    1  UNL1        0.0321
      8 C         142.6197  142.1754  163.8361 C.ar    1  UNL1        0.0027
      9 C         143.0436  141.1552  164.8506 C.ar    1  UNL1        0.0289
     10 C         143.9216  140.0101  164.4410 C.ar    1  UNL1        0.1431
     11 F         144.3456  138.9897  165.4556 F       1  UNL1       -0.2041
     12 C         144.3757  139.8852  163.0168 C.ar    1  UNL1        0.0663
     13 C         143.9518  140.9055  162.0022 C.ar    1  UNL1        0.1405
     14 O         144.4058  140.7807  160.5781 O.3     1  UNL1       -0.4565
     15 C         143.9819  141.8009  159.5636 C.3     1  UNL1        0.2911
     16 C         142.5896  141.2800  166.2748 C.ar    1  UNL1        0.0214
     17 C         143.2251  142.2946  167.1784 C.ar    1  UNL1        0.0039
     18 C         142.7711  142.4195  168.6026 C.ar    1  UNL1        0.0297
     19 C         141.6815  141.5297  169.1231 C.ar    1  UNL1        0.1492
     20 N         141.0459  140.5150  168.2195 N.ar    1  UNL1       -0.2335
     21 C         141.5000  140.3902  166.7953 C.ar    1  UNL1        0.0997
     22 C         141.2275  141.6545  170.5473 C.1     1  UNL1        0.1198
     23 N         140.7734  141.7793  171.9715 N.1     1  UNL1       -0.1893
     24 C         145.1102  141.0095  157.2733 C.3     1  UNL1        0.1392
     25 C         147.5613  142.8743  154.7704 C.3     1  UNL1        0.0946
     26 C         146.9373  142.3892  156.0453 C.2     1  UNL1        0.2231
     27 O         147.5163  142.7988  157.3670 O.2     1  UNL1       -0.2751
     28 N         145.7343  141.4946  155.9984 N.am    1  UNL1       -0.3010
     29 H         145.3542  141.2257  155.1309 H       1  UNL1        0.1495
@<TRIPOS>BOND
     1    25    26    1
     2    26    27    2
     3    26    28   am
     4    28    24    1
     5     1    24    1
     6     1     2    1
     7     2     3    1
     8     3     4    2
     9     3     5   am
    10     5     6    1
    11     6     7    1
    12     7     8   ar
    13     8     9   ar
    14     9    16    1
    15    16    17   ar
    16    17    18   ar
    17    18    19   ar
    18    19    22    1
    19    22    23    3
    20    19    20   ar
    21    20    21   ar
    22     9    10   ar
    23    10    11    1
    24    10    12   ar
    25    12    13   ar
    26    13    14    1
    27    15    14    1
    28    15     1    1
    29    15     5    1
    30    13     7   ar
    31    21    16   ar
    32    28    29    1
