@<TRIPOS>MOLECULE
*****
 32 35 0 0 0
SMALL
GASTEIGER

@<TRIPOS>ATOM
      1 C         141.9545  141.2196  164.5106 C.ar    1  UNL1        0.1679
      2 C         142.0612  142.6552  164.9324 C.ar    1  UNL1        0.0702
      3 C         141.9524  143.7473  163.9100 C.ar    1  UNL1        0.1620
      4 F         142.0590  145.1828  164.3317 F       1  UNL1       -0.2026
      5 C         141.7369  143.4040  162.4657 C.ar    1  UNL1        0.1549
      6 C         141.6303  141.9685  162.0440 C.ar    1  UNL1        0.0553
      7 C         141.7391  140.8763  163.0664 C.ar    1  UNL1        0.1753
      8 F         141.6324  139.4407  162.6446 F       1  UNL1       -0.2009
      9 S         141.6281  144.4961  161.4433 S.O2    1  UNL1        0.0769
     10 O         142.9999  144.1599  160.9381 O.2     1  UNL1       -0.1498
     11 O         140.2564  144.8324  161.9485 O.2     1  UNL1       -0.1498
     12 N         141.5193  145.5883  160.4209 N.pl3   1  UNL1       -0.1987
     13 H         141.5711  146.5310  160.7002 H       1  UNL1        0.1753
     14 C         141.3317  145.2442  158.9730 C.ar    1  UNL1        0.1503
     15 C         140.2581  144.2796  158.5644 C.ar    1  UNL1        0.0563
     16 C         140.0705  143.9356  157.1165 C.ar    1  UNL1        0.1036
     17 N         140.9564  144.5561  156.0772 N.ar    1  UNL1       -0.2223
     18 C         142.0299  145.5208  156.4858 C.ar    1  UNL1        0.2001
     19 N         142.2175  145.8648  157.9337 N.ar    1  UNL1       -0.2077
     20 O         142.0633  140.1274  165.5330 O.3     1  UNL1       -0.4764
     21 C         139.7227  139.6039  166.5319 C.3     1  UNL1        0.0799
     22 C         138.7867  139.5776  167.7037 C.3     1  UNL1        0.0095
     23 C         139.2553  140.0486  169.0485 C.3     1  UNL1        0.0006
     24 C         140.6598  140.5459  169.2215 C.3     1  UNL1        0.0037
     25 C         141.5958  140.5722  168.0497 C.3     1  UNL1        0.0439
     26 C         141.1273  140.1012  166.7049 C.3     1  UNL1        0.1714
     27 C         138.1389  141.4002  164.3149 C.3     1  UNL1        0.1533
     28 N         138.5262  139.9585  164.1680 N.ar    1  UNL1       -0.2527
     29 N         138.2535  139.0894  162.9762 N.ar    1  UNL1       -0.1679
     30 C         138.8130  137.7265  163.2587 C.ar    1  UNL1        0.1213
     31 C         139.4314  137.7534  164.6249 C.ar    1  UNL1        0.0369
     32 C         139.2542  139.1329  165.1870 C.ar    1  UNL1        0.0603
@<TRIPOS>BOND
     1    27    28    1
     2    28    29   ar
     3    29    30   ar
     4    30    31   ar
     5    31    32   ar
     6    21    32    1
     7    21    22    1
     8    22    23    1
     9    23    24    1
    10    24    25    1
    11    25    26    1
    12    26    20    1
    13    20     1    1
    14     1     2   ar
    15     2     3   ar
    16     3     4    1
    17     3     5   ar
    18     5     9    1
    19     9    10    2
    20     9    11    2
    21     9    12    1
    22    12    14    1
    23    14    15   ar
    24    15    16   ar
    25    16    17   ar
    26    17    18   ar
    27    18    19   ar
    28     5     6   ar
    29     6     7   ar
    30     7     8    1
    31    32    28   ar
    32    26    21    1
    33     7     1   ar
    34    19    14   ar
    35    12    13    1
@<TRIPOS>MOLECULE
*****
 32 35 0 0 0
SMALL
GASTEIGER

@<TRIPOS>ATOM
      1 C         139.9536  142.6020  165.4078 C.ar    1  UNL1        0.1679
      2 C         140.4810  142.0035  164.1374 C.ar    1  UNL1        0.0702
      3 C         140.4561  142.7996  162.8664 C.ar    1  UNL1        0.1620
      4 F         140.9835  142.2012  161.5961 F       1  UNL1       -0.2026
      5 C         139.9039  144.1943  162.8657 C.ar    1  UNL1        0.1549
      6 C         139.3765  144.7928  164.1360 C.ar    1  UNL1        0.0553
      7 C         139.4014  143.9967  165.4070 C.ar    1  UNL1        0.1753
      8 F         138.8740  144.5952  166.6774 F       1  UNL1       -0.2009
      9 S         139.8790  144.9905  161.5947 S.O2    1  UNL1        0.0769
     10 O         138.8846  144.0301  161.0126 O.2     1  UNL1       -0.1498
     11 O         140.8734  145.9509  162.1768 O.2     1  UNL1       -0.1498
     12 N         139.8541  145.7866  160.3236 N.pl3   1  UNL1       -0.1987
     13 H         139.2804  146.5836  160.2531 H       1  UNL1        0.1753
     14 C         140.7035  145.3685  159.1600 C.ar    1  UNL1        0.1503
     15 C         140.3625  145.8363  157.7762 C.ar    1  UNL1        0.0563
     16 C         141.2119  145.4183  156.6127 C.ar    1  UNL1        0.1036
     17 N         142.4021  144.5324  156.8330 N.ar    1  UNL1       -0.2223
     18 C         142.7430  144.0646  158.2168 C.ar    1  UNL1        0.2001
     19 N         141.8937  144.4827  159.3803 N.ar    1  UNL1       -0.2077
     20 O         139.9785  141.8059  166.6788 O.3     1  UNL1       -0.4764
     21 C         142.3114  141.7617  167.8215 C.3     1  UNL1        0.0799
     22 C         143.2150  142.1723  168.9461 C.3     1  UNL1        0.0095
     23 C         142.6895  143.0379  170.0526 C.3     1  UNL1        0.0006
     24 C         141.2602  143.4928  170.0346 C.3     1  UNL1        0.0037
     25 C         140.3566  143.0821  168.9100 C.3     1  UNL1        0.0439
     26 C         140.8821  142.2166  167.8035 C.3     1  UNL1        0.1714
     27 C         143.9977  142.7851  165.2217 C.3     1  UNL1        0.1533
     28 N         143.6120  141.3665  165.5199 N.ar    1  UNL1       -0.2527
     29 N         143.9338  140.1693  164.6754 N.ar    1  UNL1       -0.1679
     30 C         143.3576  138.9589  165.3485 C.ar    1  UNL1        0.1213
     31 C         142.6797  139.4081  166.6089 C.ar    1  UNL1        0.0369
     32 C         142.8370  140.8961  166.7148 C.ar    1  UNL1        0.0603
@<TRIPOS>BOND
     1    27    28    1
     2    28    29   ar
     3    29    30   ar
     4    30    31   ar
     5    31    32   ar
     6    21    32    1
     7    21    22    1
     8    22    23    1
     9    23    24    1
    10    24    25    1
    11    25    26    1
    12    26    20    1
    13    20     1    1
    14     1     2   ar
    15     2     3   ar
    16     3     4    1
    17     3     5   ar
    18     5     9    1
    19     9    10    2
    20     9    11    2
    21     9    12    1
    22    12    14    1
    23    14    15   ar
    24    15    16   ar
    25    16    17   ar
    26    17    18   ar
    27    18    19   ar
    28     5     6   ar
    29     6     7   ar
    30     7     8    1
    31    32    28   ar
    32    26    21    1
    33     7     1   ar
    34    19    14   ar
    35    12    13    1
@<TRIPOS>MOLECULE
*****
 32 35 0 0 0
SMALL
GASTEIGER

@<TRIPOS>ATOM
      1 C         142.1778  140.8679  164.4616 C.ar    1  UNL1        0.1679
      2 C         141.6749  140.6467  163.0658 C.ar    1  UNL1        0.0702
      3 C         141.5355  141.8076  162.1261 C.ar    1  UNL1        0.1620
      4 F         141.0326  141.5865  160.7304 F       1  UNL1       -0.2026
      5 C         141.8991  143.1896  162.5823 C.ar    1  UNL1        0.1549
      6 C         142.4019  143.4107  163.9780 C.ar    1  UNL1        0.0553
      7 C         142.5413  142.2498  164.9177 C.ar    1  UNL1        0.1753
      8 F         143.0443  142.4710  166.3135 F       1  UNL1       -0.2009
      9 S         141.7597  144.3504  161.6426 S.O2    1  UNL1        0.0769
     10 O         140.4643  144.7262  162.2990 O.2     1  UNL1       -0.1498
     11 O         143.0550  143.9747  160.9862 O.2     1  UNL1       -0.1498
     12 N         141.6203  145.5113  160.7029 N.pl3   1  UNL1       -0.1987
     13 H         141.7156  146.4315  161.0398 H       1  UNL1        0.1753
     14 C         141.3356  145.2701  159.2500 C.ar    1  UNL1        0.1503
     15 C         140.1513  144.4436  158.8449 C.ar    1  UNL1        0.0563
     16 C         139.8668  144.2025  157.3920 C.ar    1  UNL1        0.1036
     17 N         140.7665  144.7879  156.3443 N.ar    1  UNL1       -0.2223
     18 C         141.9508  145.6144  156.7494 C.ar    1  UNL1        0.2001
     19 N         142.2354  145.8556  158.2023 N.ar    1  UNL1       -0.2077
     20 O         142.3172  139.7070  165.4013 O.3     1  UNL1       -0.4764
     21 C         140.2608  140.0387  166.9541 C.3     1  UNL1        0.0799
     22 C         139.6718  140.1140  168.3315 C.3     1  UNL1        0.0095
     23 C         140.5502  139.9327  169.5337 C.3     1  UNL1        0.0006
     24 C         142.0177  139.6762  169.3585 C.3     1  UNL1        0.0037
     25 C         142.6067  139.6010  167.9811 C.3     1  UNL1        0.0439
     26 C         141.7283  139.7822  166.7788 C.3     1  UNL1        0.1714
     27 C         139.2275  137.6720  164.9588 C.3     1  UNL1        0.1533
     28 N         138.9074  139.1321  164.8347 N.ar    1  UNL1       -0.2527
     29 N         138.0561  139.7608  163.7716 N.ar    1  UNL1       -0.1679
     30 C         138.0048  141.2372  164.0317 C.ar    1  UNL1        0.1213
     31 C         138.8245  141.5210  165.2554 C.ar    1  UNL1        0.0369
     32 C         139.3823  140.2200  165.7517 C.ar    1  UNL1        0.0603
@<TRIPOS>BOND
     1    27    28    1
     2    28    29   ar
     3    29    30   ar
     4    30    31   ar
     5    31    32   ar
     6    21    32    1
     7    21    22    1
     8    22    23    1
     9    23    24    1
    10    24    25    1
    11    25    26    1
    12    26    20    1
    13    20     1    1
    14     1     2   ar
    15     2     3   ar
    16     3     4    1
    17     3     5   ar
    18     5     9    1
    19     9    10    2
    20     9    11    2
    21     9    12    1
    22    12    14    1
    23    14    15   ar
    24    15    16   ar
    25    16    17   ar
    26    17    18   ar
    27    18    19   ar
    28     5     6   ar
    29     6     7   ar
    30     7     8    1
    31    32    28   ar
    32    26    21    1
    33     7     1   ar
    34    19    14   ar
    35    12    13    1
@<TRIPOS>MOLECULE
*****
 32 35 0 0 0
SMALL
GASTEIGER

@<TRIPOS>ATOM
      1 C         139.6114  141.0896  165.1826 C.ar    1  UNL1        0.1679
      2 C         139.5329  142.5292  165.5968 C.ar    1  UNL1        0.0702
      3 C         139.7174  143.6140  164.5775 C.ar    1  UNL1        0.1620
      4 F         139.6389  145.0535  164.9916 F       1  UNL1       -0.2026
      5 C         139.9805  143.2592  163.1439 C.ar    1  UNL1        0.1549
      6 C         140.0590  141.8197  162.7298 C.ar    1  UNL1        0.0553
      7 C         139.8744  140.7349  163.7492 C.ar    1  UNL1        0.1753
      8 F         139.9529  139.2953  163.3350 F       1  UNL1       -0.2009
      9 S         140.1651  144.3440  162.1246 S.O2    1  UNL1        0.0769
     10 O         138.6812  144.5598  162.0855 O.2     1  UNL1       -0.1498
     11 O         141.6490  144.1283  162.1637 O.2     1  UNL1       -0.1498
     12 N         140.3497  145.4289  161.1052 N.pl3   1  UNL1       -0.1987
     13 H         140.2619  146.3731  161.3698 H       1  UNL1        0.1753
     14 C         140.6681  145.0750  159.6827 C.ar    1  UNL1        0.1503
     15 C         139.8484  144.0443  158.9647 C.ar    1  UNL1        0.0563
     16 C         140.1668  143.6905  157.5423 C.ar    1  UNL1        0.1036
     17 N         141.3050  144.3675  156.8378 N.ar    1  UNL1       -0.2223
     18 C         142.1247  145.3983  157.5558 C.ar    1  UNL1        0.2001
     19 N         141.8063  145.7520  158.9782 N.ar    1  UNL1       -0.2077
     20 O         139.4268  140.0048  166.2020 O.3     1  UNL1       -0.4764
     21 C         141.7042  139.8966  167.4476 C.3     1  UNL1        0.0799
     22 C         142.4885  139.9273  168.7259 C.3     1  UNL1        0.0095
     23 C         141.7796  140.0969  170.0368 C.3     1  UNL1        0.0006
     24 C         140.2864  140.2358  170.0695 C.3     1  UNL1        0.0037
     25 C         139.5021  140.2051  168.7913 C.3     1  UNL1        0.0439
     26 C         140.2110  140.0355  167.4803 C.3     1  UNL1        0.1714
     27 C         143.2786  142.2337  165.8018 C.3     1  UNL1        0.1533
     28 N         143.1368  140.8012  165.3801 N.ar    1  UNL1       -0.2527
     29 N         143.6938  140.1915  164.1279 N.ar    1  UNL1       -0.1679
     30 C         143.3143  138.7403  164.1105 C.ar    1  UNL1        0.1213
     31 C         142.5229  138.4533  165.3519 C.ar    1  UNL1        0.0369
     32 C         142.4132  139.7270  166.1366 C.ar    1  UNL1        0.0603
@<TRIPOS>BOND
     1    27    28    1
     2    28    29   ar
     3    29    30   ar
     4    30    31   ar
     5    31    32   ar
     6    21    32    1
     7    21    22    1
     8    22    23    1
     9    23    24    1
    10    24    25    1
    11    25    26    1
    12    26    20    1
    13    20     1    1
    14     1     2   ar
    15     2     3   ar
    16     3     4    1
    17     3     5   ar
    18     5     9    1
    19     9    10    2
    20     9    11    2
    21     9    12    1
    22    12    14    1
    23    14    15   ar
    24    15    16   ar
    25    16    17   ar
    26    17    18   ar
    27    18    19   ar
    28     5     6   ar
    29     6     7   ar
    30     7     8    1
    31    32    28   ar
    32    26    21    1
    33     7     1   ar
    34    19    14   ar
    35    12    13    1
@<TRIPOS>MOLECULE
*****
 32 35 0 0 0
SMALL
GASTEIGER

@<TRIPOS>ATOM
      1 C         139.9975  141.9583  164.5421 C.ar    1  UNL1        0.1679
      2 C         140.5795  143.3032  164.8628 C.ar    1  UNL1        0.0702
      3 C         140.9399  144.2479  163.7548 C.ar    1  UNL1        0.1620
      4 F         141.5219  145.5926  164.0753 F       1  UNL1       -0.2026
      5 C         140.7184  143.8477  162.3262 C.ar    1  UNL1        0.1549
      6 C         140.1364  142.5029  162.0056 C.ar    1  UNL1        0.0553
      7 C         139.7760  141.5582  163.1136 C.ar    1  UNL1        0.1753
      8 F         139.1939  140.2134  162.7930 F       1  UNL1       -0.2009
      9 S         141.0788  144.7924  161.2182 S.O2    1  UNL1        0.0769
     10 O         142.4618  144.2132  161.1742 O.2     1  UNL1       -0.1498
     11 O         139.6958  145.3716  161.2621 O.2     1  UNL1       -0.1498
     12 N         141.4392  145.7371  160.1102 N.pl3   1  UNL1       -0.1987
     13 H         141.7283  146.6545  160.3200 H       1  UNL1        0.1753
     14 C         141.3592  145.2840  158.6824 C.ar    1  UNL1        0.1503
     15 C         140.3550  144.2447  158.2806 C.ar    1  UNL1        0.0563
     16 C         140.2750  143.7917  156.8529 C.ar    1  UNL1        0.1036
     17 N         141.1992  144.3778  155.8271 N.ar    1  UNL1       -0.2223
     18 C         142.2034  145.4170  156.2290 C.ar    1  UNL1        0.2001
     19 N         142.2834  145.8701  157.6566 N.ar    1  UNL1       -0.2077
     20 O         139.6371  141.0136  165.6501 O.3     1  UNL1       -0.4764
     21 C         141.6636  139.5820  166.4206 C.3     1  UNL1        0.0799
     22 C         142.6812  139.2263  167.4636 C.3     1  UNL1        0.0095
     23 C         142.6898  139.9465  168.7793 C.3     1  UNL1        0.0006
     24 C         141.6809  141.0225  169.0520 C.3     1  UNL1        0.0037
     25 C         140.6633  141.3782  168.0089 C.3     1  UNL1        0.0439
     26 C         140.6547  140.6579  166.6933 C.3     1  UNL1        0.1714
     27 C         143.3507  140.4293  163.7587 C.3     1  UNL1        0.1533
     28 N         142.4304  139.2512  163.8813 N.ar    1  UNL1       -0.2527
     29 N         142.1240  138.2557  162.8019 N.ar    1  UNL1       -0.1679
     30 C         141.1591  137.2509  163.3583 C.ar    1  UNL1        0.1213
     31 C         140.8692  137.6255  164.7816 C.ar    1  UNL1        0.0369
     32 C         141.6549  138.8617  165.1048 C.ar    1  UNL1        0.0603
@<TRIPOS>BOND
     1    27    28    1
     2    28    29   ar
     3    29    30   ar
     4    30    31   ar
     5    31    32   ar
     6    21    32    1
     7    21    22    1
     8    22    23    1
     9    23    24    1
    10    24    25    1
    11    25    26    1
    12    26    20    1
    13    20     1    1
    14     1     2   ar
    15     2     3   ar
    16     3     4    1
    17     3     5   ar
    18     5     9    1
    19     9    10    2
    20     9    11    2
    21     9    12    1
    22    12    14    1
    23    14    15   ar
    24    15    16   ar
    25    16    17   ar
    26    17    18   ar
    27    18    19   ar
    28     5     6   ar
    29     6     7   ar
    30     7     8    1
    31    32    28   ar
    32    26    21    1
    33     7     1   ar
    34    19    14   ar
    35    12    13    1
@<TRIPOS>MOLECULE
*****
 32 35 0 0 0
SMALL
GASTEIGER

@<TRIPOS>ATOM
      1 C         141.6520  143.0218  165.5450 C.ar    1  UNL1        0.1679
      2 C         140.2171  143.4425  165.4254 C.ar    1  UNL1        0.0702
      3 C         139.7117  144.0270  164.1397 C.ar    1  UNL1        0.1620
      4 F         138.2769  144.4476  164.0200 F       1  UNL1       -0.2026
      5 C         140.6411  144.1909  162.9738 C.ar    1  UNL1        0.1549
      6 C         142.0759  143.7702  163.0934 C.ar    1  UNL1        0.0553
      7 C         142.5813  143.1857  164.3791 C.ar    1  UNL1        0.1753
      8 F         144.0162  142.7651  164.4987 F       1  UNL1       -0.2009
      9 S         140.1356  144.7754  161.6881 S.O2    1  UNL1        0.0769
     10 O         139.7284  143.4076  161.2263 O.2     1  UNL1       -0.1498
     11 O         140.5428  146.1432  162.1499 O.2     1  UNL1       -0.1498
     12 N         139.6301  145.3599  160.4025 N.pl3   1  UNL1       -0.1987
     13 H         138.7353  145.7688  160.3659 H       1  UNL1        0.1753
     14 C         140.4881  145.3214  159.1726 C.ar    1  UNL1        0.1503
     15 C         140.0324  146.0067  157.9186 C.ar    1  UNL1        0.0563
     16 C         140.8904  145.9683  156.6888 C.ar    1  UNL1        0.1036
     17 N         142.2040  145.2445  156.7131 N.ar    1  UNL1       -0.2223
     18 C         142.6596  144.5592  157.9671 C.ar    1  UNL1        0.2001
     19 N         141.8017  144.5977  159.1969 N.ar    1  UNL1       -0.2077
     20 O         142.1575  142.4373  166.8306 O.3     1  UNL1       -0.4764
     21 C         140.5854  140.5655  167.7110 C.3     1  UNL1        0.0799
     22 C         139.6156  140.0597  168.7374 C.3     1  UNL1        0.0095
     23 C         139.2478  140.9200  169.9098 C.3     1  UNL1        0.0006
     24 C         139.8500  142.2861  170.0559 C.3     1  UNL1        0.0037
     25 C         140.8198  142.7918  169.0295 C.3     1  UNL1        0.0439
     26 C         141.1876  141.9315  167.8571 C.3     1  UNL1        0.1714
     27 C         138.7030  139.9515  165.1169 C.3     1  UNL1        0.1533
     28 N         140.0880  139.4230  165.3462 N.ar    1  UNL1       -0.2527
     29 N         140.8508  138.5195  164.4233 N.ar    1  UNL1       -0.1679
     30 C         142.1876  138.2432  165.0453 C.ar    1  UNL1        0.1213
     31 C         142.2508  138.9761  166.3526 C.ar    1  UNL1        0.0369
     32 C         140.9532  139.7052  166.5385 C.ar    1  UNL1        0.0603
@<TRIPOS>BOND
     1    27    28    1
     2    28    29   ar
     3    29    30   ar
     4    30    31   ar
     5    31    32   ar
     6    21    32    1
     7    21    22    1
     8    22    23    1
     9    23    24    1
    10    24    25    1
    11    25    26    1
    12    26    20    1
    13    20     1    1
    14     1     2   ar
    15     2     3   ar
    16     3     4    1
    17     3     5   ar
    18     5     9    1
    19     9    10    2
    20     9    11    2
    21     9    12    1
    22    12    14    1
    23    14    15   ar
    24    15    16   ar
    25    16    17   ar
    26    17    18   ar
    27    18    19   ar
    28     5     6   ar
    29     6     7   ar
    30     7     8    1
    31    32    28   ar
    32    26    21    1
    33     7     1   ar
    34    19    14   ar
    35    12    13    1
@<TRIPOS>MOLECULE
*****
 32 35 0 0 0
SMALL
GASTEIGER

@<TRIPOS>ATOM
      1 C         141.6699  141.4144  164.8456 C.ar    1  UNL1        0.1679
      2 C         141.5378  142.8772  165.1506 C.ar    1  UNL1        0.0702
      3 C         141.5679  143.8812  164.0366 C.ar    1  UNL1        0.1620
      4 F         141.4358  145.3439  164.3415 F       1  UNL1       -0.2026
      5 C         141.7301  143.4225  162.6176 C.ar    1  UNL1        0.1549
      6 C         141.8622  141.9598  162.3128 C.ar    1  UNL1        0.0553
      7 C         141.8321  140.9557  163.4268 C.ar    1  UNL1        0.1753
      8 F         141.9642  139.4930  163.1218 F       1  UNL1       -0.2009
      9 S         141.7602  144.4265  161.5036 S.O2    1  UNL1        0.0769
     10 O         140.2609  144.4708  161.5030 O.2     1  UNL1       -0.1498
     11 O         143.2596  144.3822  161.5042 O.2     1  UNL1       -0.1498
     12 N         141.7904  145.4306  160.3896 N.pl3   1  UNL1       -0.1987
     13 H         142.0707  146.3570  160.5694 H       1  UNL1        0.1753
     14 C         141.3933  145.0230  159.0017 C.ar    1  UNL1        0.1503
     15 C         140.4034  145.8466  158.2325 C.ar    1  UNL1        0.0563
     16 C         140.0063  145.4391  156.8446 C.ar    1  UNL1        0.1036
     17 N         140.5992  144.2079  156.2260 N.ar    1  UNL1       -0.2223
     18 C         141.5890  143.3843  156.9952 C.ar    1  UNL1        0.2001
     19 N         141.9861  143.7918  158.3831 N.ar    1  UNL1       -0.2077
     20 O         141.6398  140.4103  165.9596 O.3     1  UNL1       -0.4764
     21 C         139.7970  140.1045  167.7654 C.3     1  UNL1        0.0799
     22 C         138.4921  139.5072  168.2016 C.3     1  UNL1        0.0095
     23 C         137.7249  138.6182  167.2682 C.3     1  UNL1        0.0006
     24 C         138.2628  138.3267  165.8986 C.3     1  UNL1        0.0037
     25 C         139.5677  138.9240  165.4624 C.3     1  UNL1        0.0439
     26 C         140.3348  139.8129  166.3958 C.3     1  UNL1        0.1714
     27 C         142.2249  139.1750  169.7379 C.3     1  UNL1        0.1533
     28 N         141.6802  140.5662  169.6054 N.ar    1  UNL1       -0.2527
     29 N         142.1557  141.7745  170.3564 N.ar    1  UNL1       -0.1679
     30 C         141.3337  142.9486  169.9138 C.ar    1  UNL1        0.1213
     31 C         140.3500  142.4659  168.8894 C.ar    1  UNL1        0.0369
     32 C         140.5642  140.9935  168.6988 C.ar    1  UNL1        0.0603
@<TRIPOS>BOND
     1    27    28    1
     2    28    29   ar
     3    29    30   ar
     4    30    31   ar
     5    31    32   ar
     6    21    32    1
     7    21    22    1
     8    22    23    1
     9    23    24    1
    10    24    25    1
    11    25    26    1
    12    26    20    1
    13    20     1    1
    14     1     2   ar
    15     2     3   ar
    16     3     4    1
    17     3     5   ar
    18     5     9    1
    19     9    10    2
    20     9    11    2
    21     9    12    1
    22    12    14    1
    23    14    15   ar
    24    15    16   ar
    25    16    17   ar
    26    17    18   ar
    27    18    19   ar
    28     5     6   ar
    29     6     7   ar
    30     7     8    1
    31    32    28   ar
    32    26    21    1
    33     7     1   ar
    34    19    14   ar
    35    12    13    1
@<TRIPOS>MOLECULE
*****
 32 35 0 0 0
SMALL
GASTEIGER

@<TRIPOS>ATOM
      1 C         141.1423  141.4793  164.0311 C.ar    1  UNL1        0.1679
      2 C         140.4826  142.7799  164.3824 C.ar    1  UNL1        0.0702
      3 C         140.2150  143.7979  163.3136 C.ar    1  UNL1        0.1620
      4 F         139.5554  145.0984  163.6649 F       1  UNL1       -0.2026
      5 C         140.6072  143.5152  161.8936 C.ar    1  UNL1        0.1549
      6 C         141.2669  142.2147  161.5424 C.ar    1  UNL1        0.0553
      7 C         141.5344  141.1968  162.6111 C.ar    1  UNL1        0.1753
      8 F         142.1941  139.8962  162.2598 F       1  UNL1       -0.2009
      9 S         140.3397  144.5332  160.8249 S.O2    1  UNL1        0.0769
     10 O         138.9049  144.0992  160.7706 O.2     1  UNL1       -0.1498
     11 O         141.7745  144.9673  160.8791 O.2     1  UNL1       -0.1498
     12 N         140.0722  145.5512  159.7561 N.pl3   1  UNL1       -0.1987
     13 H         139.7430  146.4463  160.0003 H       1  UNL1        0.1753
     14 C         140.3062  145.2052  158.3154 C.ar    1  UNL1        0.1503
     15 C         140.2062  146.2692  157.2628 C.ar    1  UNL1        0.0563
     16 C         140.4402  145.9232  155.8222 C.ar    1  UNL1        0.1036
     17 N         140.7743  144.5133  155.4341 N.ar    1  UNL1       -0.2223
     18 C         140.8743  143.4494  156.4867 C.ar    1  UNL1        0.2001
     19 N         140.6402  143.7953  157.9274 N.ar    1  UNL1       -0.2077
     20 O         141.4098  140.4614  165.0998 O.3     1  UNL1       -0.4764
     21 C         139.2045  139.1279  165.4292 C.3     1  UNL1        0.0799
     22 C         138.0888  138.6612  166.3165 C.3     1  UNL1        0.0095
     23 C         138.0627  139.0613  167.7619 C.3     1  UNL1        0.0006
     24 C         139.1523  139.9281  168.3200 C.3     1  UNL1        0.0037
     25 C         140.2680  140.3948  167.4326 C.3     1  UNL1        0.0439
     26 C         140.2941  139.9947  165.9872 C.3     1  UNL1        0.1714
     27 C         141.2304  136.9566  164.0761 C.3     1  UNL1        0.1533
     28 N         140.1618  137.7298  163.3618 N.ar    1  UNL1       -0.2527
     29 N         139.8368  137.6407  161.9002 N.ar    1  UNL1       -0.1679
     30 C         138.7046  138.5836  161.6187 C.ar    1  UNL1        0.1213
     31 C         138.3300  139.2555  162.9064 C.ar    1  UNL1        0.0369
     32 C         139.2306  138.7278  163.9837 C.ar    1  UNL1        0.0603
@<TRIPOS>BOND
     1    27    28    1
     2    28    29   ar
     3    29    30   ar
     4    30    31   ar
     5    31    32   ar
     6    21    32    1
     7    21    22    1
     8    22    23    1
     9    23    24    1
    10    24    25    1
    11    25    26    1
    12    26    20    1
    13    20     1    1
    14     1     2   ar
    15     2     3   ar
    16     3     4    1
    17     3     5   ar
    18     5     9    1
    19     9    10    2
    20     9    11    2
    21     9    12    1
    22    12    14    1
    23    14    15   ar
    24    15    16   ar
    25    16    17   ar
    26    17    18   ar
    27    18    19   ar
    28     5     6   ar
    29     6     7   ar
    30     7     8    1
    31    32    28   ar
    32    26    21    1
    33     7     1   ar
    34    19    14   ar
    35    12    13    1
@<TRIPOS>MOLECULE
*****
 32 35 0 0 0
SMALL
GASTEIGER

@<TRIPOS>ATOM
      1 C         141.1384  142.5469  163.2932 C.ar    1  UNL1        0.1679
      2 C         140.1656  142.2504  162.1905 C.ar    1  UNL1        0.0702
      3 C         140.1659  143.0866  160.9452 C.ar    1  UNL1        0.1620
      4 F         139.1931  142.7901  159.8426 F       1  UNL1       -0.2026
      5 C         141.1390  144.2191  160.8025 C.ar    1  UNL1        0.1549
      6 C         142.1118  144.5156  161.9051 C.ar    1  UNL1        0.0553
      7 C         142.1115  143.6795  163.1504 C.ar    1  UNL1        0.1753
      8 F         143.0844  143.9759  164.2531 F       1  UNL1       -0.2009
      9 S         141.1393  145.0553  159.5571 S.O2    1  UNL1        0.0769
     10 O         139.8798  145.7317  160.0110 O.2     1  UNL1       -0.1498
     11 O         142.3989  144.3788  159.1033 O.2     1  UNL1       -0.1498
     12 N         141.1397  145.8914  158.3118 N.pl3   1  UNL1       -0.1987
     13 H         141.8156  146.5972  158.1929 H       1  UNL1        0.1753
     14 C         140.1100  145.6520  157.2475 C.ar    1  UNL1        0.1503
     15 C         139.5798  146.8028  156.4446 C.ar    1  UNL1        0.0563
     16 C         138.5502  146.5634  155.3804 C.ar    1  UNL1        0.1036
     17 N         138.0508  145.1733  155.1190 N.ar    1  UNL1       -0.2223
     18 C         138.5811  144.0226  155.9219 C.ar    1  UNL1        0.2001
     19 N         139.6106  144.2620  156.9861 N.ar    1  UNL1       -0.2077
     20 O         141.1381  141.7108  164.5385 O.3     1  UNL1       -0.4764
     21 C         142.3679  139.4990  163.9504 C.3     1  UNL1        0.0799
     22 C         142.3723  138.0025  163.8490 C.3     1  UNL1        0.0095
     23 C         141.1512  137.2211  164.2342 C.3     1  UNL1        0.0006
     24 C         139.9258  137.9363  164.7208 C.3     1  UNL1        0.0037
     25 C         139.9214  139.4328  164.8223 C.3     1  UNL1        0.0439
     26 C         141.1424  140.2142  164.4371 C.3     1  UNL1        0.1714
     27 C         143.1939  140.3989  160.9242 C.3     1  UNL1        0.1533
     28 N         143.9686  140.6941  162.1743 N.ar    1  UNL1       -0.2527
     29 N         145.2591  141.4547  162.2528 N.ar    1  UNL1       -0.1679
     30 C         145.6770  141.5112  163.6923 C.ar    1  UNL1        0.1213
     31 C         144.6448  140.7855  164.5034 C.ar    1  UNL1        0.0369
     32 C         143.5890  140.2805  163.5652 C.ar    1  UNL1        0.0603
@<TRIPOS>BOND
     1    27    28    1
     2    28    29   ar
     3    29    30   ar
     4    30    31   ar
     5    31    32   ar
     6    21    32    1
     7    21    22    1
     8    22    23    1
     9    23    24    1
    10    24    25    1
    11    25    26    1
    12    26    20    1
    13    20     1    1
    14     1     2   ar
    15     2     3   ar
    16     3     4    1
    17     3     5   ar
    18     5     9    1
    19     9    10    2
    20     9    11    2
    21     9    12    1
    22    12    14    1
    23    14    15   ar
    24    15    16   ar
    25    16    17   ar
    26    17    18   ar
    27    18    19   ar
    28     5     6   ar
    29     6     7   ar
    30     7     8    1
    31    32    28   ar
    32    26    21    1
    33     7     1   ar
    34    19    14   ar
    35    12    13    1
