@<TRIPOS>MOLECULE
*****
 35 39 0 0 0
SMALL
GASTEIGER

@<TRIPOS>ATOM
      1 C         142.4694  144.6330  163.3621 C.3     1  UNL1        0.0545
      2 C         143.0575  143.9785  162.1474 C.3     1  UNL1        0.0162
      3 C         144.1639  143.0719  162.5992 C.3     1  UNL1        0.0095
      4 C         145.2111  142.1071  162.1277 C.3     1  UNL1        0.0005
      5 C         145.9540  141.6051  163.3303 C.3     1  UNL1        0.0005
      6 C         145.3658  142.2596  164.5450 C.3     1  UNL1        0.0087
      7 C         144.2595  143.1662  164.0932 C.3     1  UNL1        0.0704
      8 C         143.2122  144.1310  164.5647 C.3     1  UNL1        0.0243
      9 C         144.3551  143.2605  165.5872 C.2     1  UNL1        0.2250
     10 O         145.4778  144.0279  166.2199 O.2     1  UNL1       -0.2749
     11 N         143.3278  142.5873  166.4484 N.am    1  UNL1       -0.2751
     12 C         143.4234  142.6816  167.9424 C.3     1  UNL1        0.0984
     13 C         142.3961  142.0085  168.8035 C.3     1  UNL1        0.0476
     14 C         141.2733  141.2411  168.1708 C.ar    1  UNL1       -0.0226
     15 C         140.2461  140.5679  169.0320 C.ar    1  UNL1       -0.0014
     16 C         139.1233  139.8005  168.3992 C.ar    1  UNL1        0.0368
     17 C         139.0277  139.7063  166.9052 C.ar    1  UNL1        0.1465
     18 C         140.0550  140.3794  166.0440 C.ar    1  UNL1        0.0343
     19 C         141.1778  141.1468  166.6768 C.ar    1  UNL1       -0.0032
     20 C         142.2050  141.8199  165.8156 C.3     1  UNL1        0.1199
     21 O         137.9050  138.9388  166.2724 O.3     1  UNL1       -0.4045
     22 C         137.6660  137.5079  166.6539 C.3     1  UNL1        0.5753
     23 F         137.4272  136.0770  167.0353 F       1  UNL1       -0.1328
     24 F         138.6497  137.0658  165.6113 F       1  UNL1       -0.1328
     25 F         136.6824  137.9500  167.6965 F       1  UNL1       -0.1328
     26 N         141.3371  145.6169  163.3725 N.3     1  UNL1       -0.2975
     27 H         141.5573  146.3117  164.0861 H       1  UNL1        0.1232
     28 C         138.9954  144.9052  162.5009 C.3     1  UNL1        0.1591
     29 C         137.5965  144.4359  162.7704 C.3     1  UNL1        0.1729
     30 O         137.1403  144.2089  164.1812 O.3     1  UNL1       -0.3511
     31 C         138.0830  144.4514  165.3225 C.3     1  UNL1        0.1437
     32 C         139.4820  144.9207  165.0529 C.3     1  UNL1        0.0503
     33 C         139.9382  145.1476  163.6421 C.3     1  UNL1        0.0865
     34 C         139.9688  143.9838  160.2752 C.3     1  UNL1        0.1742
     35 O         139.4516  145.1321  161.0901 O.3     1  UNL1       -0.3496
@<TRIPOS>BOND
     1    34    35    1
     2    35    28    1
     3    28    29    1
     4    29    30    1
     5    30    31    1
     6    31    32    1
     7    32    33    1
     8    33    26    1
     9     1    26    1
    10     1     2    1
    11     3     2    1
    12     3     4    1
    13     4     5    1
    14     5     6    1
    15     6     7    1
    16     7     9    1
    17     9    10    2
    18     9    11   am
    19    11    12    1
    20    12    13    1
    21    13    14    1
    22    14    15   ar
    23    15    16   ar
    24    16    17   ar
    25    17    21    1
    26    21    22    1
    27    22    23    1
    28    22    24    1
    29    22    25    1
    30    17    18   ar
    31    18    19   ar
    32    19    20    1
    33     7     8    1
    34    33    28    1
    35     8     1    1
    36     7     3    1
    37    20    11    1
    38    19    14   ar
    39    26    27    1
@<TRIPOS>MOLECULE
*****
 35 39 0 0 0
SMALL
GASTEIGER

@<TRIPOS>ATOM
      1 C         141.1290  141.9708  162.0033 C.3     1  UNL1        0.0545
      2 C         140.8402  143.4265  161.7849 C.3     1  UNL1        0.0162
      3 C         139.5383  143.7467  162.4575 C.3     1  UNL1        0.0095
      4 C         138.5552  144.8443  162.7383 C.3     1  UNL1        0.0005
      5 C         137.4318  144.2649  163.5459 C.3     1  UNL1        0.0005
      6 C         137.7206  142.8092  163.7643 C.3     1  UNL1        0.0087
      7 C         139.0225  142.4890  163.0916 C.3     1  UNL1        0.0704
      8 C         140.0056  141.3914  162.8109 C.3     1  UNL1        0.0243
      9 C         138.5067  141.2313  163.7257 C.2     1  UNL1        0.2250
     10 O         137.6417  140.2937  162.9366 O.2     1  UNL1       -0.2749
     11 N         138.8559  140.9111  165.1490 N.am    1  UNL1       -0.2751
     12 C         138.3401  139.6534  165.7830 C.3     1  UNL1        0.0984
     13 C         138.6893  139.3333  167.2062 C.3     1  UNL1        0.0476
     14 C         139.5543  140.2708  167.9954 C.ar    1  UNL1       -0.0226
     15 C         139.9035  139.9506  169.4186 C.ar    1  UNL1       -0.0014
     16 C         140.7685  140.8882  170.2078 C.ar    1  UNL1        0.0368
     17 C         141.2843  142.1460  169.5736 C.ar    1  UNL1        0.1465
     18 C         140.9351  142.4661  168.1504 C.ar    1  UNL1        0.0343
     19 C         140.0701  141.5285  167.3613 C.ar    1  UNL1       -0.0032
     20 C         139.7209  141.8487  165.9381 C.3     1  UNL1        0.1199
     21 O         142.1493  143.0835  170.3628 O.3     1  UNL1       -0.4045
     22 C         143.6428  142.9595  170.2986 C.3     1  UNL1        0.5753
     23 F         145.1363  142.8355  170.2345 F       1  UNL1       -0.1328
     24 F         143.7801  144.1392  171.2148 F       1  UNL1       -0.1328
     25 F         143.5055  141.7798  169.3824 F       1  UNL1       -0.1328
     26 N         142.3304  141.2254  161.5020 N.3     1  UNL1       -0.2975
     27 H         141.9981  140.3193  161.1720 H       1  UNL1        0.1232
     28 C         144.5027  142.0239  162.6824 C.3     1  UNL1        0.1591
     29 C         145.6554  141.7533  163.6033 C.3     1  UNL1        0.1729
     30 O         145.7886  140.4135  164.2646 O.3     1  UNL1       -0.3511
     31 C         144.7690  139.3443  164.0050 C.3     1  UNL1        0.1437
     32 C         143.6163  139.6149  163.0842 C.3     1  UNL1        0.0503
     33 C         143.4831  140.9548  162.4229 C.3     1  UNL1        0.0865
     34 C         144.1204  144.5882  162.8510 C.3     1  UNL1        0.1742
     35 O         144.3695  143.3636  162.0212 O.3     1  UNL1       -0.3496
@<TRIPOS>BOND
     1    34    35    1
     2    35    28    1
     3    28    29    1
     4    29    30    1
     5    30    31    1
     6    31    32    1
     7    32    33    1
     8    33    26    1
     9     1    26    1
    10     1     2    1
    11     3     2    1
    12     3     4    1
    13     4     5    1
    14     5     6    1
    15     6     7    1
    16     7     9    1
    17     9    10    2
    18     9    11   am
    19    11    12    1
    20    12    13    1
    21    13    14    1
    22    14    15   ar
    23    15    16   ar
    24    16    17   ar
    25    17    21    1
    26    21    22    1
    27    22    23    1
    28    22    24    1
    29    22    25    1
    30    17    18   ar
    31    18    19   ar
    32    19    20    1
    33     7     8    1
    34    33    28    1
    35     8     1    1
    36     7     3    1
    37    20    11    1
    38    19    14   ar
    39    26    27    1
@<TRIPOS>MOLECULE
*****
 35 39 0 0 0
SMALL
GASTEIGER

@<TRIPOS>ATOM
      1 C         142.4258  143.5673  163.0040 C.3     1  UNL1        0.0545
      2 C         143.7797  143.7590  163.6205 C.3     1  UNL1        0.0162
      3 C         144.4414  142.4160  163.7126 C.3     1  UNL1        0.0095
      4 C         145.6871  141.7043  164.1505 C.3     1  UNL1        0.0005
      5 C         145.5120  140.2429  163.8616 C.3     1  UNL1        0.0005
      6 C         144.1581  140.0512  163.2450 C.3     1  UNL1        0.0087
      7 C         143.4964  141.3942  163.1530 C.3     1  UNL1        0.0704
      8 C         142.2507  142.1059  162.7150 C.3     1  UNL1        0.0243
      9 C         142.5514  140.3726  162.5933 C.2     1  UNL1        0.2250
     10 O         142.7106  139.8990  161.1790 O.2     1  UNL1       -0.2749
     11 N         141.4472  139.8246  163.4480 N.am    1  UNL1       -0.2751
     12 C         140.5022  138.8030  162.8884 C.3     1  UNL1        0.0984
     13 C         139.3980  138.2550  163.7431 C.3     1  UNL1        0.0476
     14 C         139.2389  138.7287  165.1574 C.ar    1  UNL1       -0.0226
     15 C         138.1347  138.1807  166.0121 C.ar    1  UNL1       -0.0014
     16 C         137.9755  138.6543  167.4264 C.ar    1  UNL1        0.0368
     17 C         138.9206  139.6760  167.9861 C.ar    1  UNL1        0.1465
     18 C         140.0247  140.2240  167.1314 C.ar    1  UNL1        0.0343
     19 C         140.1839  139.7503  165.7170 C.ar    1  UNL1       -0.0032
     20 C         141.2880  140.2983  164.8623 C.3     1  UNL1        0.1199
     21 O         138.7614  140.1497  169.4004 O.3     1  UNL1       -0.4045
     22 C         139.9386  140.7139  170.1393 C.3     1  UNL1        0.5753
     23 F         141.1157  141.2782  170.8782 F       1  UNL1       -0.1328
     24 F         139.2981  142.0702  170.1239 F       1  UNL1       -0.1328
     25 F         140.5791  139.3577  170.1547 F       1  UNL1       -0.1328
     26 N         141.4230  144.6475  162.7253 N.3     1  UNL1       -0.2975
     27 H         141.8469  145.5266  163.0220 H       1  UNL1        0.1232
     28 C         138.8648  144.2426  162.5213 C.3     1  UNL1        0.1591
     29 C         137.5046  144.1837  163.1509 C.3     1  UNL1        0.1729
     30 O         137.3424  144.4709  164.6141 O.3     1  UNL1       -0.3511
     31 C         138.5404  144.8170  165.4479 C.3     1  UNL1        0.1437
     32 C         139.9006  144.8759  164.8183 C.3     1  UNL1        0.0503
     33 C         140.0628  144.5887  163.3549 C.3     1  UNL1        0.0865
     34 C         139.1659  142.5395  160.5825 C.3     1  UNL1        0.1742
     35 O         139.0270  143.9554  161.0580 O.3     1  UNL1       -0.3496
@<TRIPOS>BOND
     1    34    35    1
     2    35    28    1
     3    28    29    1
     4    29    30    1
     5    30    31    1
     6    31    32    1
     7    32    33    1
     8    33    26    1
     9     1    26    1
    10     1     2    1
    11     3     2    1
    12     3     4    1
    13     4     5    1
    14     5     6    1
    15     6     7    1
    16     7     9    1
    17     9    10    2
    18     9    11   am
    19    11    12    1
    20    12    13    1
    21    13    14    1
    22    14    15   ar
    23    15    16   ar
    24    16    17   ar
    25    17    21    1
    26    21    22    1
    27    22    23    1
    28    22    24    1
    29    22    25    1
    30    17    18   ar
    31    18    19   ar
    32    19    20    1
    33     7     8    1
    34    33    28    1
    35     8     1    1
    36     7     3    1
    37    20    11    1
    38    19    14   ar
    39    26    27    1
@<TRIPOS>MOLECULE
*****
 35 39 0 0 0
SMALL
GASTEIGER

@<TRIPOS>ATOM
      1 C         140.8652  141.3763  160.4065 C.3     1  UNL1        0.0545
      2 C         142.3454  141.3184  160.1711 C.3     1  UNL1        0.0162
      3 C         142.8560  140.0297  160.7442 C.3     1  UNL1        0.0095
      4 C         144.0863  139.1974  160.9528 C.3     1  UNL1        0.0005
      5 C         143.6820  137.9444  161.6715 C.3     1  UNL1        0.0005
      6 C         142.2017  138.0022  161.9069 C.3     1  UNL1        0.0087
      7 C         141.6912  139.2909  161.3338 C.3     1  UNL1        0.0704
      8 C         140.4608  140.1232  161.1251 C.3     1  UNL1        0.0243
      9 C         140.5264  138.5523  161.9235 C.2     1  UNL1        0.2250
     10 O         139.7568  137.5743  161.0861 O.2     1  UNL1       -0.2749
     11 N         140.1312  138.7916  163.3506 N.am    1  UNL1       -0.2751
     12 C         138.9665  138.0530  163.9402 C.3     1  UNL1        0.0984
     13 C         138.5713  138.2923  165.3673 C.3     1  UNL1        0.0476
     14 C         139.3409  139.2703  166.2047 C.ar    1  UNL1       -0.0226
     15 C         138.9457  139.5096  167.6318 C.ar    1  UNL1       -0.0014
     16 C         139.7153  140.4876  168.4693 C.ar    1  UNL1        0.0368
     17 C         140.8801  141.2262  167.8795 C.ar    1  UNL1        0.1465
     18 C         141.2753  140.9869  166.4525 C.ar    1  UNL1        0.0343
     19 C         140.5057  140.0089  165.6151 C.ar    1  UNL1       -0.0032
     20 C         140.9008  139.7696  164.1880 C.3     1  UNL1        0.1199
     21 O         141.6497  142.2042  168.7170 O.3     1  UNL1       -0.4045
     22 C         140.9522  143.3879  169.3191 C.3     1  UNL1        0.5753
     23 F         140.2547  144.5715  169.9212 F       1  UNL1       -0.1328
     24 F         141.7584  143.2248  170.5734 F       1  UNL1       -0.1328
     25 F         140.1460  143.5509  168.0647 F       1  UNL1       -0.1328
     26 N         139.9499  142.4914  159.9955 N.3     1  UNL1       -0.2975
     27 H         140.3899  142.9558  159.2011 H       1  UNL1        0.1232
     28 C         138.4355  143.3638  161.9179 C.3     1  UNL1        0.1591
     29 C         138.0730  144.4374  162.9007 C.3     1  UNL1        0.1729
     30 O         138.8624  145.7121  162.9441 O.3     1  UNL1       -0.3511
     31 C         140.0143  145.9133  162.0046 C.3     1  UNL1        0.1437
     32 C         140.3768  144.8397  161.0217 C.3     1  UNL1        0.0503
     33 C         139.5874  143.5649  160.9784 C.3     1  UNL1        0.0865
     34 C         137.4046  141.3132  163.1354 C.3     1  UNL1        0.1742
     35 O         137.6461  142.0891  161.8745 O.3     1  UNL1       -0.3496
@<TRIPOS>BOND
     1    34    35    1
     2    35    28    1
     3    28    29    1
     4    29    30    1
     5    30    31    1
     6    31    32    1
     7    32    33    1
     8    33    26    1
     9     1    26    1
    10     1     2    1
    11     3     2    1
    12     3     4    1
    13     4     5    1
    14     5     6    1
    15     6     7    1
    16     7     9    1
    17     9    10    2
    18     9    11   am
    19    11    12    1
    20    12    13    1
    21    13    14    1
    22    14    15   ar
    23    15    16   ar
    24    16    17   ar
    25    17    21    1
    26    21    22    1
    27    22    23    1
    28    22    24    1
    29    22    25    1
    30    17    18   ar
    31    18    19   ar
    32    19    20    1
    33     7     8    1
    34    33    28    1
    35     8     1    1
    36     7     3    1
    37    20    11    1
    38    19    14   ar
    39    26    27    1
@<TRIPOS>MOLECULE
*****
 35 39 0 0 0
SMALL
GASTEIGER

@<TRIPOS>ATOM
      1 C         141.9587  142.3516  162.3367 C.3     1  UNL1        0.0545
      2 C         143.3713  141.9555  162.0244 C.3     1  UNL1        0.0162
      3 C         143.4452  140.4574  162.0326 C.3     1  UNL1        0.0095
      4 C         144.3639  139.2866  161.8447 C.3     1  UNL1        0.0005
      5 C         143.5647  138.0333  162.0459 C.3     1  UNL1        0.0005
      6 C         142.1521  138.4294  162.3582 C.3     1  UNL1        0.0087
      7 C         142.0782  139.9275  162.3500 C.3     1  UNL1        0.0704
      8 C         141.1595  141.0983  162.5380 C.3     1  UNL1        0.0243
      9 C         140.7113  139.3978  162.6674 C.2     1  UNL1        0.2250
     10 O         139.8663  138.8030  161.5801 O.2     1  UNL1       -0.2749
     11 N         140.1892  139.4629  164.0722 N.am    1  UNL1       -0.2751
     12 C         138.8223  138.9331  164.3896 C.3     1  UNL1        0.0984
     13 C         138.3003  138.9982  165.7943 C.3     1  UNL1        0.0476
     14 C         139.1452  139.5930  166.8816 C.ar    1  UNL1       -0.0226
     15 C         138.6232  139.6581  168.2864 C.ar    1  UNL1       -0.0014
     16 C         139.4681  140.2529  169.3737 C.ar    1  UNL1        0.0368
     17 C         140.8351  140.7827  169.0562 C.ar    1  UNL1        0.1465
     18 C         141.3571  140.7176  167.6515 C.ar    1  UNL1        0.0343
     19 C         140.5122  140.1228  166.5642 C.ar    1  UNL1       -0.0032
     20 C         141.0342  140.0577  165.1595 C.3     1  UNL1        0.1199
     21 O         141.6801  141.3775  170.1435 O.3     1  UNL1       -0.4045
     22 C         143.0258  141.9543  169.8169 C.3     1  UNL1        0.5753
     23 F         144.3713  142.5311  169.4903 F       1  UNL1       -0.1328
     24 F         142.3795  143.2602  169.4607 F       1  UNL1       -0.1328
     25 F         143.6720  140.6484  170.1731 F       1  UNL1       -0.1328
     26 N         141.4368  143.7548  162.4312 N.3     1  UNL1       -0.2975
     27 H         142.1666  144.3110  162.8766 H       1  UNL1        0.1232
     28 C         138.8549  144.0432  162.4453 C.3     1  UNL1        0.1591
     29 C         137.5829  144.3217  163.1899 C.3     1  UNL1        0.1729
     30 O         137.6209  144.5904  164.6652 O.3     1  UNL1       -0.3511
     31 C         138.9309  144.5805  165.3958 C.3     1  UNL1        0.1437
     32 C         140.2029  144.3020  164.6512 C.3     1  UNL1        0.0503
     33 C         140.1649  144.0333  163.1759 C.3     1  UNL1        0.0865
     34 C         138.4820  142.4019  160.4661 C.3     1  UNL1        0.1742
     35 O         138.8169  143.7745  160.9701 O.3     1  UNL1       -0.3496
@<TRIPOS>BOND
     1    34    35    1
     2    35    28    1
     3    28    29    1
     4    29    30    1
     5    30    31    1
     6    31    32    1
     7    32    33    1
     8    33    26    1
     9     1    26    1
    10     1     2    1
    11     3     2    1
    12     3     4    1
    13     4     5    1
    14     5     6    1
    15     6     7    1
    16     7     9    1
    17     9    10    2
    18     9    11   am
    19    11    12    1
    20    12    13    1
    21    13    14    1
    22    14    15   ar
    23    15    16   ar
    24    16    17   ar
    25    17    21    1
    26    21    22    1
    27    22    23    1
    28    22    24    1
    29    22    25    1
    30    17    18   ar
    31    18    19   ar
    32    19    20    1
    33     7     8    1
    34    33    28    1
    35     8     1    1
    36     7     3    1
    37    20    11    1
    38    19    14   ar
    39    26    27    1
@<TRIPOS>MOLECULE
*****
 35 39 0 0 0
SMALL
GASTEIGER

@<TRIPOS>ATOM
      1 C         140.6879  137.6352  164.0127 C.3     1  UNL1        0.0545
      2 C         139.2374  137.5058  164.3723 C.3     1  UNL1        0.0162
      3 C         138.9900  138.3264  165.6033 C.3     1  UNL1        0.0095
      4 C         137.9407  138.7536  166.5864 C.3     1  UNL1        0.0005
      5 C         138.5898  139.6542  167.5951 C.3     1  UNL1        0.0005
      6 C         140.0403  139.7837  167.2355 C.3     1  UNL1        0.0087
      7 C         140.2877  138.9631  166.0045 C.3     1  UNL1        0.0704
      8 C         141.3370  138.5359  165.0214 C.3     1  UNL1        0.0243
      9 C         141.5853  139.5997  166.4057 C.2     1  UNL1        0.2250
     10 O         142.4471  138.9527  167.4491 O.2     1  UNL1       -0.2749
     11 N         142.0211  140.8833  165.7634 N.am    1  UNL1       -0.2751
     12 C         143.3187  141.5199  166.1645 C.3     1  UNL1        0.0984
     13 C         143.7544  142.8035  165.5223 C.3     1  UNL1        0.0476
     14 C         142.8926  143.4504  164.4788 C.ar    1  UNL1       -0.0226
     15 C         143.3284  144.7340  163.8366 C.ar    1  UNL1       -0.0014
     16 C         142.4666  145.3810  162.7932 C.ar    1  UNL1        0.0368
     17 C         141.1689  144.7443  162.3920 C.ar    1  UNL1        0.1465
     18 C         140.7332  143.4608  163.0343 C.ar    1  UNL1        0.0343
     19 C         141.5950  142.8138  164.0777 C.ar    1  UNL1       -0.0032
     20 C         141.1593  141.5302  164.7200 C.3     1  UNL1        0.1199
     21 O         140.3071  145.3913  161.3486 O.3     1  UNL1       -0.4045
     22 C         140.3023  144.8608  159.9455 C.3     1  UNL1        0.5753
     23 F         140.2974  144.3303  158.5425 F       1  UNL1       -0.1328
     24 F         141.4113  145.8041  159.5850 F       1  UNL1       -0.1328
     25 F         139.1932  143.9174  160.3060 F       1  UNL1       -0.1328
     26 N         141.3697  136.9792  162.8486 N.3     1  UNL1       -0.2975
     27 H         142.1193  136.4039  163.2325 H       1  UNL1        0.1232
     28 C         141.1148  138.3855  160.6790 C.3     1  UNL1        0.1591
     29 C         141.7248  139.2256  159.5963 C.3     1  UNL1        0.1729
     30 O         143.1995  139.4996  159.6006 O.3     1  UNL1       -0.3511
     31 C         144.0644  138.9334  160.6876 C.3     1  UNL1        0.1437
     32 C         143.4544  138.0933  161.7703 C.3     1  UNL1        0.0503
     33 C         141.9796  137.8194  161.7659 C.3     1  UNL1        0.0865
     34 C         138.6735  139.2026  161.0288 C.3     1  UNL1        0.1742
     35 O         139.6401  138.1115  160.6746 O.3     1  UNL1       -0.3496
@<TRIPOS>BOND
     1    34    35    1
     2    35    28    1
     3    28    29    1
     4    29    30    1
     5    30    31    1
     6    31    32    1
     7    32    33    1
     8    33    26    1
     9     1    26    1
    10     1     2    1
    11     3     2    1
    12     3     4    1
    13     4     5    1
    14     5     6    1
    15     6     7    1
    16     7     9    1
    17     9    10    2
    18     9    11   am
    19    11    12    1
    20    12    13    1
    21    13    14    1
    22    14    15   ar
    23    15    16   ar
    24    16    17   ar
    25    17    21    1
    26    21    22    1
    27    22    23    1
    28    22    24    1
    29    22    25    1
    30    17    18   ar
    31    18    19   ar
    32    19    20    1
    33     7     8    1
    34    33    28    1
    35     8     1    1
    36     7     3    1
    37    20    11    1
    38    19    14   ar
    39    26    27    1
@<TRIPOS>MOLECULE
*****
 35 39 0 0 0
SMALL
GASTEIGER

@<TRIPOS>ATOM
      1 C         140.5475  141.7288  160.9189 C.3     1  UNL1        0.0545
      2 C         139.0714  141.5956  160.6880 C.3     1  UNL1        0.0162
      3 C         138.6510  140.2321  161.1508 C.3     1  UNL1        0.0095
      4 C         137.4789  139.3071  161.2941 C.3     1  UNL1        0.0005
      5 C         137.9708  138.0259  161.8997 C.3     1  UNL1        0.0005
      6 C         139.4469  138.1591  162.1306 C.3     1  UNL1        0.0087
      7 C         139.8673  139.5226  161.6678 C.3     1  UNL1        0.0704
      8 C         141.0393  140.4476  161.5245 C.3     1  UNL1        0.0243
      9 C         141.0836  138.8132  162.1848 C.2     1  UNL1        0.2250
     10 O         141.8973  137.9521  161.2648 O.2     1  UNL1       -0.2749
     11 N         141.4862  138.9648  163.6218 N.am    1  UNL1       -0.2751
     12 C         142.7024  138.2553  164.1388 C.3     1  UNL1        0.0984
     13 C         143.1050  138.4070  165.5758 C.3     1  UNL1        0.0476
     14 C         142.2912  139.2681  166.4958 C.ar    1  UNL1       -0.0226
     15 C         142.6938  139.4197  167.9328 C.ar    1  UNL1       -0.0014
     16 C         141.8801  140.2808  168.8528 C.ar    1  UNL1        0.0368
     17 C         140.6637  140.9902  168.3357 C.ar    1  UNL1        0.1465
     18 C         140.2612  140.8386  166.8988 C.ar    1  UNL1        0.0343
     19 C         141.0749  139.9775  165.9788 C.ar    1  UNL1       -0.0032
     20 C         140.6724  139.8259  164.5418 C.3     1  UNL1        0.1199
     21 O         139.8500  141.8513  169.2557 O.3     1  UNL1       -0.4045
     22 C         140.3581  143.2025  169.6633 C.3     1  UNL1        0.5753
     23 F         140.8663  144.5537  170.0709 F       1  UNL1       -0.1328
     24 F         140.7025  142.6637  171.0201 F       1  UNL1       -0.1328
     25 F         140.0138  143.7414  168.3065 F       1  UNL1       -0.1328
     26 N         141.3847  142.9319  160.6003 N.3     1  UNL1       -0.2975
     27 H         142.1336  142.6148  159.9846 H       1  UNL1        0.1232
     28 C         141.2239  144.6728  162.5221 C.3     1  UNL1        0.1591
     29 C         141.8731  145.4492  163.6292 C.3     1  UNL1        0.1729
     30 O         143.3323  145.2614  163.9215 O.3     1  UNL1       -0.3511
     31 C         144.1424  144.2970  163.1067 C.3     1  UNL1        0.1437
     32 C         143.4932  143.5205  161.9996 C.3     1  UNL1        0.0503
     33 C         142.0339  143.7084  161.7074 C.3     1  UNL1        0.0865
     34 C         138.7426  144.5475  163.2822 C.3     1  UNL1        0.1742
     35 O         139.7648  144.8606  162.2298 O.3     1  UNL1       -0.3496
@<TRIPOS>BOND
     1    34    35    1
     2    35    28    1
     3    28    29    1
     4    29    30    1
     5    30    31    1
     6    31    32    1
     7    32    33    1
     8    33    26    1
     9     1    26    1
    10     1     2    1
    11     3     2    1
    12     3     4    1
    13     4     5    1
    14     5     6    1
    15     6     7    1
    16     7     9    1
    17     9    10    2
    18     9    11   am
    19    11    12    1
    20    12    13    1
    21    13    14    1
    22    14    15   ar
    23    15    16   ar
    24    16    17   ar
    25    17    21    1
    26    21    22    1
    27    22    23    1
    28    22    24    1
    29    22    25    1
    30    17    18   ar
    31    18    19   ar
    32    19    20    1
    33     7     8    1
    34    33    28    1
    35     8     1    1
    36     7     3    1
    37    20    11    1
    38    19    14   ar
    39    26    27    1
@<TRIPOS>MOLECULE
*****
 35 39 0 0 0
SMALL
GASTEIGER

@<TRIPOS>ATOM
      1 C         139.6973  139.3753  166.1086 C.3     1  UNL1        0.0545
      2 C         139.2365  139.9844  167.3995 C.3     1  UNL1        0.0162
      3 C         140.4432  140.2135  168.2606 C.3     1  UNL1        0.0095
      4 C         140.9042  140.7316  169.5907 C.3     1  UNL1        0.0005
      5 C         142.3957  140.5842  169.6539 C.3     1  UNL1        0.0005
      6 C         142.8564  139.9751  168.3629 C.3     1  UNL1        0.0087
      7 C         141.6497  139.7460  167.5018 C.3     1  UNL1        0.0704
      8 C         141.1887  139.2279  166.1718 C.3     1  UNL1        0.0243
      9 C         142.8562  139.2784  166.7430 C.2     1  UNL1        0.2250
     10 O         143.6615  138.1208  167.2541 O.2     1  UNL1       -0.2749
     11 N         143.2573  139.9685  165.4730 N.am    1  UNL1       -0.2751
     12 C         144.4638  139.5010  164.7142 C.3     1  UNL1        0.0984
     13 C         144.8649  140.1911  163.4442 C.3     1  UNL1        0.0476
     14 C         144.0596  141.3488  162.9331 C.ar    1  UNL1       -0.0226
     15 C         144.4607  142.0389  161.6631 C.ar    1  UNL1       -0.0014
     16 C         143.6554  143.1965  161.1519 C.ar    1  UNL1        0.0368
     17 C         142.4489  143.6641  161.9108 C.ar    1  UNL1        0.1465
     18 C         142.0478  142.9740  163.1808 C.ar    1  UNL1        0.0343
     19 C         142.8531  141.8163  163.6919 C.ar    1  UNL1       -0.0032
     20 C         142.4520  141.1262  164.9618 C.3     1  UNL1        0.1199
     21 O         141.6436  144.8217  161.3997 O.3     1  UNL1       -0.4045
     22 C         140.3324  145.1652  162.0424 C.3     1  UNL1        0.5753
     23 F         139.0212  145.5085  162.6850 F       1  UNL1       -0.1328
     24 F         139.6275  144.2324  161.1027 F       1  UNL1       -0.1328
     25 F         141.0372  146.0979  162.9820 F       1  UNL1       -0.1328
     26 N         138.8205  138.9825  164.9565 N.3     1  UNL1       -0.2975
     27 H         139.3361  138.2863  164.4181 H       1  UNL1        0.1232
     28 C         138.1595  139.6653  162.5385 C.3     1  UNL1        0.1591
     29 C         137.6900  140.7051  161.5647 C.3     1  UNL1        0.1729
     30 O         137.4120  142.1020  162.0351 O.3     1  UNL1       -0.3511
     31 C         137.6034  142.4591  163.4794 C.3     1  UNL1        0.1437
     32 C         138.0730  141.4193  164.4532 C.3     1  UNL1        0.0503
     33 C         138.3510  140.0223  163.9827 C.3     1  UNL1        0.0865
     34 C         139.7777  137.9250  161.4884 C.3     1  UNL1        0.1742
     35 O         138.4375  138.2684  162.0681 O.3     1  UNL1       -0.3496
@<TRIPOS>BOND
     1    34    35    1
     2    35    28    1
     3    28    29    1
     4    29    30    1
     5    30    31    1
     6    31    32    1
     7    32    33    1
     8    33    26    1
     9     1    26    1
    10     1     2    1
    11     3     2    1
    12     3     4    1
    13     4     5    1
    14     5     6    1
    15     6     7    1
    16     7     9    1
    17     9    10    2
    18     9    11   am
    19    11    12    1
    20    12    13    1
    21    13    14    1
    22    14    15   ar
    23    15    16   ar
    24    16    17   ar
    25    17    21    1
    26    21    22    1
    27    22    23    1
    28    22    24    1
    29    22    25    1
    30    17    18   ar
    31    18    19   ar
    32    19    20    1
    33     7     8    1
    34    33    28    1
    35     8     1    1
    36     7     3    1
    37    20    11    1
    38    19    14   ar
    39    26    27    1
@<TRIPOS>MOLECULE
*****
 35 39 0 0 0
SMALL
GASTEIGER

@<TRIPOS>ATOM
      1 C         143.5715  142.0134  166.1924 C.3     1  UNL1        0.0545
      2 C         143.3204  142.5798  167.5585 C.3     1  UNL1        0.0162
      3 C         142.9390  141.4485  168.4665 C.3     1  UNL1        0.0095
      4 C         142.5482  141.0993  169.8719 C.3     1  UNL1        0.0005
      5 C         142.3219  139.6178  169.9357 C.3     1  UNL1        0.0005
      6 C         142.5730  139.0514  168.5697 C.3     1  UNL1        0.0087
      7 C         142.9544  140.1827  167.6616 C.3     1  UNL1        0.0704
      8 C         143.3452  140.5319  166.2562 C.3     1  UNL1        0.0243
      9 C         142.9697  138.9171  166.8568 C.2     1  UNL1        0.2250
     10 O         143.9821  137.8511  167.1547 O.2     1  UNL1       -0.2749
     11 N         141.9726  138.7174  165.7540 N.am    1  UNL1       -0.2751
     12 C         141.9880  137.4517  164.9491 C.3     1  UNL1        0.0984
     13 C         140.9910  137.2521  163.8464 C.3     1  UNL1        0.0476
     14 C         139.9786  138.3181  163.5486 C.ar    1  UNL1       -0.0226
     15 C         138.9815  138.1184  162.4458 C.ar    1  UNL1       -0.0014
     16 C         137.9692  139.1845  162.1479 C.ar    1  UNL1        0.0368
     17 C         137.9539  140.4502  162.9528 C.ar    1  UNL1        0.1465
     18 C         138.9509  140.6498  164.0555 C.ar    1  UNL1        0.0343
     19 C         139.9633  139.5838  164.3534 C.ar    1  UNL1       -0.0032
     20 C         140.9603  139.7834  165.4561 C.3     1  UNL1        0.1199
     21 O         136.9415  141.5162  162.6549 O.3     1  UNL1       -0.4045
     22 C         137.3425  142.9613  162.6873 C.3     1  UNL1        0.5753
     23 F         137.7434  144.4063  162.7196 F       1  UNL1       -0.1328
     24 F         137.6980  142.8952  161.2316 F       1  UNL1       -0.1328
     25 F         136.9869  143.0274  164.1430 F       1  UNL1       -0.1328
     26 N         143.9775  142.7917  164.9761 N.3     1  UNL1       -0.2975
     27 H         144.6108  143.5255  165.2939 H       1  UNL1        0.1232
     28 C         143.2574  143.8633  162.7215 C.3     1  UNL1        0.1591
     29 C         142.2138  144.5290  161.8743 C.3     1  UNL1        0.1729
     30 O         140.8468  144.7888  162.4343 O.3     1  UNL1       -0.3511
     31 C         140.5233  144.3828  163.8417 C.3     1  UNL1        0.1437
     32 C         141.5668  143.7172  164.6889 C.3     1  UNL1        0.0503
     33 C         142.9339  143.4574  164.1288 C.3     1  UNL1        0.0865
     34 C         144.8758  142.3774  161.3348 C.3     1  UNL1        0.1742
     35 O         144.6244  143.6036  162.1615 O.3     1  UNL1       -0.3496
@<TRIPOS>BOND
     1    34    35    1
     2    35    28    1
     3    28    29    1
     4    29    30    1
     5    30    31    1
     6    31    32    1
     7    32    33    1
     8    33    26    1
     9     1    26    1
    10     1     2    1
    11     3     2    1
    12     3     4    1
    13     4     5    1
    14     5     6    1
    15     6     7    1
    16     7     9    1
    17     9    10    2
    18     9    11   am
    19    11    12    1
    20    12    13    1
    21    13    14    1
    22    14    15   ar
    23    15    16   ar
    24    16    17   ar
    25    17    21    1
    26    21    22    1
    27    22    23    1
    28    22    24    1
    29    22    25    1
    30    17    18   ar
    31    18    19   ar
    32    19    20    1
    33     7     8    1
    34    33    28    1
    35     8     1    1
    36     7     3    1
    37    20    11    1
    38    19    14   ar
    39    26    27    1
