@<TRIPOS>MOLECULE
*****
 33 36 0 0 0
SMALL
GASTEIGER

@<TRIPOS>ATOM
      1 O         138.9018  144.7055  162.7834 O.3     1  UNL1       -0.4538
      2 C         138.4557  143.3216  163.1521 C.ar    1  UNL1        0.2642
      3 N         137.5047  142.4643  162.3706 N.ar    1  UNL1       -0.0388
      4 O         137.3436  141.1650  163.1026 O.2     1  UNL1       -0.3504
      5 C         138.1950  141.2193  164.3364 C.ar    1  UNL1        0.1800
      6 C         138.4332  140.2272  165.4359 C.ar    1  UNL1        0.0404
      7 C         139.3587  140.5681  166.5660 C.ar    1  UNL1        0.0033
      8 C         140.0460  141.9010  166.5966 C.ar    1  UNL1        0.0012
      9 C         139.8078  142.8930  165.4971 C.ar    1  UNL1        0.0079
     10 C         138.8823  142.5522  164.3670 C.ar    1  UNL1        0.0932
     11 C         140.9716  142.2418  167.7268 C.ar    1  UNL1        0.0106
     12 C         140.4513  142.9761  168.9268 C.ar    1  UNL1        0.0008
     13 C         141.3769  143.3170  170.0570 C.ar    1  UNL1        0.0001
     14 C         142.8227  142.9234  169.9871 C.ar    1  UNL1        0.0009
     15 C         143.3429  142.1890  168.7870 C.ar    1  UNL1        0.0114
     16 C         142.4173  141.8483  167.6569 C.ar    1  UNL1        0.0576
     17 CL        142.9375  141.1139  166.4568 Cl      1  UNL1       -0.0822
     18 C         140.2133  144.9095  162.0844 C.3     1  UNL1        0.2290
     19 C         141.4857  144.4398  162.7252 C.ar    1  UNL1        0.0207
     20 C         142.2244  145.3381  163.6725 C.ar    1  UNL1       -0.0007
     21 C         143.4967  144.8684  164.3133 C.ar    1  UNL1       -0.0002
     22 C         144.0302  143.5004  164.0068 C.ar    1  UNL1       -0.0000
     23 C         143.2915  142.6022  163.0595 C.ar    1  UNL1       -0.0002
     24 C         142.0192  143.0719  162.4187 C.ar    1  UNL1       -0.0007
     25 C         140.2525  145.5831  160.7448 C.3     1  UNL1        0.2222
     26 N         141.5036  145.5376  159.9186 N.pl3   1  UNL1       -0.2588
     27 H         142.3820  145.4737  160.3587 H       1  UNL1        0.2589
     28 N         142.5085  146.2447  157.6295 N.pl3   1  UNL1       -0.1298
     29 C         141.4165  145.5894  158.4221 C.cat   1  UNL1        0.3770
     30 N         140.2374  144.9859  157.7181 N.pl3   1  UNL1       -0.2892
     31 H         142.4513  146.2787  156.6472 H       1  UNL1        0.3062
     32 H         140.1802  145.0199  156.7359 H       1  UNL1        0.2546
     33 H         139.5207  144.5559  158.2383 H       1  UNL1        0.2546
@<TRIPOS>BOND
     1    28    29    2
     2    29    30    1
     3    29    26    1
     4    26    25    1
     5    18    25    1
     6    18     1    1
     7     1     2    1
     8     2     3   ar
     9     3     4   ar
    10     4     5   ar
    11     5     6   ar
    12     6     7   ar
    13     7     8   ar
    14     8    11    1
    15    11    12   ar
    16    12    13   ar
    17    13    14   ar
    18    14    15   ar
    19    15    16   ar
    20    16    17    1
    21     8     9   ar
    22     9    10   ar
    23    18    19    1
    24    19    20   ar
    25    20    21   ar
    26    21    22   ar
    27    22    23   ar
    28    23    24   ar
    29    10     2   ar
    30    24    19   ar
    31    10     5   ar
    32    16    11   ar
    33    28    31    1
    34    30    32    1
    35    30    33    1
    36    26    27    1
@<TRIPOS>MOLECULE
*****
 33 36 0 0 0
SMALL
GASTEIGER

@<TRIPOS>ATOM
      1 O         140.8981  142.1120  168.2332 O.3     1  UNL1       -0.4538
      2 C         139.8758  141.0167  168.3065 C.ar    1  UNL1        0.2642
      3 N         139.0972  140.6174  169.5248 N.ar    1  UNL1       -0.0388
      4 O         138.1929  139.4824  169.1455 O.2     1  UNL1       -0.3504
      5 C         138.4126  139.1802  167.6927 C.ar    1  UNL1        0.1800
      6 C         137.7999  138.1641  166.7751 C.ar    1  UNL1        0.0404
      7 C         138.2274  138.0963  165.3389 C.ar    1  UNL1        0.0033
      8 C         139.2675  139.0446  164.8204 C.ar    1  UNL1        0.0012
      9 C         139.8802  140.0607  165.7380 C.ar    1  UNL1        0.0079
     10 C         139.4527  140.1285  167.1742 C.ar    1  UNL1        0.0932
     11 C         139.6950  138.9767  163.3841 C.ar    1  UNL1        0.0106
     12 C         139.1262  139.9411  162.3860 C.ar    1  UNL1        0.0008
     13 C         139.5536  139.8733  160.9497 C.ar    1  UNL1        0.0001
     14 C         140.5498  138.8410  160.5117 C.ar    1  UNL1        0.0009
     15 C         141.1186  137.8765  161.5099 C.ar    1  UNL1        0.0114
     16 C         140.6912  137.9444  162.9461 C.ar    1  UNL1        0.0576
     17 CL        141.2600  136.9800  163.9443 Cl      1  UNL1       -0.0822
     18 C         142.3591  141.7734  168.2018 C.3     1  UNL1        0.2290
     19 C         142.9032  140.8993  167.1109 C.ar    1  UNL1        0.0207
     20 C         143.3026  141.5014  165.7964 C.ar    1  UNL1       -0.0007
     21 C         143.8466  140.6274  164.7055 C.ar    1  UNL1       -0.0002
     22 C         143.9912  139.1512  164.9292 C.ar    1  UNL1       -0.0000
     23 C         143.5917  138.5491  166.2437 C.ar    1  UNL1       -0.0002
     24 C         143.0477  139.4232  167.3346 C.ar    1  UNL1       -0.0007
     25 C         143.2761  142.3089  169.2613 C.3     1  UNL1        0.2222
     26 N         142.9221  142.1494  170.7101 N.pl3   1  UNL1       -0.2588
     27 H         143.0248  142.9087  171.3284 H       1  UNL1        0.2589
     28 N         141.0598  140.7508  171.8614 N.pl3   1  UNL1       -0.1298
     29 C         142.4118  140.8332  171.2171 C.cat   1  UNL1        0.3770
     30 N         143.2536  139.5992  171.0797 N.pl3   1  UNL1       -0.2892
     31 H         140.7249  139.8869  172.1942 H       1  UNL1        0.3062
     32 H         142.9187  138.7353  171.4124 H       1  UNL1        0.2546
     33 H         144.1410  139.6533  170.6568 H       1  UNL1        0.2546
@<TRIPOS>BOND
     1    28    29    2
     2    29    30    1
     3    29    26    1
     4    26    25    1
     5    18    25    1
     6    18     1    1
     7     1     2    1
     8     2     3   ar
     9     3     4   ar
    10     4     5   ar
    11     5     6   ar
    12     6     7   ar
    13     7     8   ar
    14     8    11    1
    15    11    12   ar
    16    12    13   ar
    17    13    14   ar
    18    14    15   ar
    19    15    16   ar
    20    16    17    1
    21     8     9   ar
    22     9    10   ar
    23    18    19    1
    24    19    20   ar
    25    20    21   ar
    26    21    22   ar
    27    22    23   ar
    28    23    24   ar
    29    10     2   ar
    30    24    19   ar
    31    10     5   ar
    32    16    11   ar
    33    28    31    1
    34    30    32    1
    35    30    33    1
    36    26    27    1
@<TRIPOS>MOLECULE
*****
 33 36 0 0 0
SMALL
GASTEIGER

@<TRIPOS>ATOM
      1 O         140.1072  140.6489  168.6765 O.3     1  UNL1       -0.4538
      2 C         139.2333  140.0449  167.6174 C.ar    1  UNL1        0.2642
      3 N         138.3455  138.8474  167.7842 N.ar    1  UNL1       -0.0388
      4 O         137.6573  138.5948  166.4755 O.2     1  UNL1       -0.3504
      5 C         138.1199  139.6362  165.5000 C.ar    1  UNL1        0.1800
      6 C         137.7799  139.8841  164.0602 C.ar    1  UNL1        0.0404
      7 C         138.4140  141.0282  163.3262 C.ar    1  UNL1        0.0033
      8 C         139.3881  141.9244  164.0320 C.ar    1  UNL1        0.0012
      9 C         139.7280  141.6765  165.4717 C.ar    1  UNL1        0.0079
     10 C         139.0939  140.5324  166.2057 C.ar    1  UNL1        0.0932
     11 C         140.0222  143.0686  163.2979 C.ar    1  UNL1        0.0106
     12 C         141.4611  142.9877  162.8822 C.ar    1  UNL1        0.0008
     13 C         142.0952  144.1319  162.1481 C.ar    1  UNL1        0.0001
     14 C         141.2903  145.3570  161.8298 C.ar    1  UNL1        0.0009
     15 C         139.8513  145.4379  162.2455 C.ar    1  UNL1        0.0114
     16 C         139.2173  144.2937  162.9795 C.ar    1  UNL1        0.0576
     17 CL        137.7782  144.3746  163.3953 Cl      1  UNL1       -0.0822
     18 C         141.5865  140.4010  168.6595 C.3     1  UNL1        0.2290
     19 C         142.3964  140.7784  167.4546 C.ar    1  UNL1        0.0207
     20 C         142.7690  139.7341  166.4443 C.ar    1  UNL1       -0.0007
     21 C         143.5789  140.1115  165.2394 C.ar    1  UNL1       -0.0002
     22 C         144.0162  141.5331  165.0449 C.ar    1  UNL1       -0.0000
     23 C         143.6436  142.5773  166.0553 C.ar    1  UNL1       -0.0002
     24 C         142.8337  142.1999  167.2601 C.ar    1  UNL1       -0.0007
     25 C         142.2559  139.7758  169.8473 C.3     1  UNL1        0.2222
     26 N         142.3128  140.5148  171.1514 N.pl3   1  UNL1       -0.2588
     27 H         142.6451  140.0617  171.9598 H       1  UNL1        0.2589
     28 N         142.8573  143.0528  171.0416 N.pl3   1  UNL1       -0.1298
     29 C         141.8635  141.9441  171.2237 C.cat   1  UNL1        0.3770
     30 N         140.4205  142.2646  171.4782 N.pl3   1  UNL1       -0.2892
     31 H         142.5624  143.9909  171.0891 H       1  UNL1        0.3062
     32 H         140.1256  143.2027  171.5257 H       1  UNL1        0.2546
     33 H         139.7682  141.5369  171.5977 H       1  UNL1        0.2546
@<TRIPOS>BOND
     1    28    29    2
     2    29    30    1
     3    29    26    1
     4    26    25    1
     5    18    25    1
     6    18     1    1
     7     1     2    1
     8     2     3   ar
     9     3     4   ar
    10     4     5   ar
    11     5     6   ar
    12     6     7   ar
    13     7     8   ar
    14     8    11    1
    15    11    12   ar
    16    12    13   ar
    17    13    14   ar
    18    14    15   ar
    19    15    16   ar
    20    16    17    1
    21     8     9   ar
    22     9    10   ar
    23    18    19    1
    24    19    20   ar
    25    20    21   ar
    26    21    22   ar
    27    22    23   ar
    28    23    24   ar
    29    10     2   ar
    30    24    19   ar
    31    10     5   ar
    32    16    11   ar
    33    28    31    1
    34    30    32    1
    35    30    33    1
    36    26    27    1
@<TRIPOS>MOLECULE
*****
 33 36 0 0 0
SMALL
GASTEIGER

@<TRIPOS>ATOM
      1 O         140.6255  140.7985  168.7537 O.3     1  UNL1       -0.4538
      2 C         139.6451  139.9154  168.0402 C.ar    1  UNL1        0.2642
      3 N         138.3682  139.3740  168.6114 N.ar    1  UNL1       -0.0388
      4 O         137.7035  138.5427  167.5545 O.2     1  UNL1       -0.3504
      5 C         138.5695  138.5704  166.3301 C.ar    1  UNL1        0.1800
      6 C         138.4205  137.9327  164.9806 C.ar    1  UNL1        0.0404
      7 C         139.4715  138.1434  163.9313 C.ar    1  UNL1        0.0033
      8 C         140.6715  138.9918  164.2315 C.ar    1  UNL1        0.0012
      9 C         140.8206  139.6295  165.5810 C.ar    1  UNL1        0.0079
     10 C         139.7696  139.4188  166.6303 C.ar    1  UNL1        0.0932
     11 C         141.7225  139.2026  163.1822 C.ar    1  UNL1        0.0106
     12 C         142.9647  138.3618  163.1854 C.ar    1  UNL1        0.0008
     13 C         144.0157  138.5725  162.1361 C.ar    1  UNL1        0.0001
     14 C         143.8245  139.6240  161.0836 C.ar    1  UNL1        0.0009
     15 C         142.5822  140.4648  161.0804 C.ar    1  UNL1        0.0114
     16 C         141.5313  140.2540  162.1297 C.ar    1  UNL1        0.0576
     17 CL        140.2890  141.0948  162.1265 Cl      1  UNL1       -0.0822
     18 C         140.7822  142.2321  168.3409 C.3     1  UNL1        0.2290
     19 C         141.3263  142.5666  166.9836 C.ar    1  UNL1        0.0207
     20 C         142.7651  142.2890  166.6631 C.ar    1  UNL1       -0.0007
     21 C         143.3092  142.6235  165.3059 C.ar    1  UNL1       -0.0002
     22 C         142.4144  143.2356  164.2692 C.ar    1  UNL1       -0.0000
     23 C         140.9756  143.5131  164.5897 C.ar    1  UNL1       -0.0002
     24 C         140.4315  143.1787  165.9470 C.ar    1  UNL1       -0.0007
     25 C         140.3948  143.3311  169.2853 C.3     1  UNL1        0.2222
     26 N         141.4023  143.8795  170.2518 N.pl3   1  UNL1       -0.2588
     27 H         141.3700  144.8287  170.5108 H       1  UNL1        0.2589
     28 N         142.1035  141.9911  171.8927 N.pl3   1  UNL1       -0.1298
     29 C         142.4590  142.9815  170.8237 C.cat   1  UNL1        0.3770
     30 N         143.8712  143.0740  170.3266 N.pl3   1  UNL1       -0.2892
     31 H         142.7971  141.4017  172.2680 H       1  UNL1        0.3062
     32 H         144.5648  142.4847  170.7020 H       1  UNL1        0.2546
     33 H         144.1045  143.7241  169.6251 H       1  UNL1        0.2546
@<TRIPOS>BOND
     1    28    29    2
     2    29    30    1
     3    29    26    1
     4    26    25    1
     5    18    25    1
     6    18     1    1
     7     1     2    1
     8     2     3   ar
     9     3     4   ar
    10     4     5   ar
    11     5     6   ar
    12     6     7   ar
    13     7     8   ar
    14     8    11    1
    15    11    12   ar
    16    12    13   ar
    17    13    14   ar
    18    14    15   ar
    19    15    16   ar
    20    16    17    1
    21     8     9   ar
    22     9    10   ar
    23    18    19    1
    24    19    20   ar
    25    20    21   ar
    26    21    22   ar
    27    22    23   ar
    28    23    24   ar
    29    10     2   ar
    30    24    19   ar
    31    10     5   ar
    32    16    11   ar
    33    28    31    1
    34    30    32    1
    35    30    33    1
    36    26    27    1
@<TRIPOS>MOLECULE
*****
 33 36 0 0 0
SMALL
GASTEIGER

@<TRIPOS>ATOM
      1 O         139.8515  141.9482  161.6007 O.3     1  UNL1       -0.4538
      2 C         141.0572  142.8187  161.7971 C.ar    1  UNL1        0.2642
      3 N         141.6038  143.8043  160.8073 N.ar    1  UNL1       -0.0388
      4 O         142.8124  144.4510  161.4163 O.2     1  UNL1       -0.3504
      5 C         143.0128  143.8652  162.7826 C.ar    1  UNL1        0.1800
      6 C         144.0428  144.1200  163.8427 C.ar    1  UNL1        0.0404
      7 C         143.9881  143.3660  165.1382 C.ar    1  UNL1        0.0033
      8 C         142.9033  142.3571  165.3736 C.ar    1  UNL1        0.0012
      9 C         141.8733  142.1022  164.3134 C.ar    1  UNL1        0.0079
     10 C         141.9280  142.8563  163.0179 C.ar    1  UNL1        0.0932
     11 C         142.8487  141.6030  166.6692 C.ar    1  UNL1        0.0106
     12 C         143.0525  142.3265  167.9672 C.ar    1  UNL1        0.0008
     13 C         142.9978  141.5724  169.2628 C.ar    1  UNL1        0.0001
     14 C         142.7393  140.0949  169.2603 C.ar    1  UNL1        0.0009
     15 C         142.5355  139.3714  167.9621 C.ar    1  UNL1        0.0114
     16 C         142.5901  140.1255  166.6666 C.ar    1  UNL1        0.0576
     17 CL        142.3863  139.4020  165.3685 Cl      1  UNL1       -0.0822
     18 C         138.8151  141.8476  162.6806 C.3     1  UNL1        0.2290
     19 C         138.7782  140.6439  163.5748 C.ar    1  UNL1        0.0207
     20 C         139.1422  139.2941  163.0311 C.ar    1  UNL1       -0.0007
     21 C         139.1053  138.0904  163.9254 C.ar    1  UNL1       -0.0002
     22 C         138.7044  138.2365  165.3634 C.ar    1  UNL1       -0.0000
     23 C         138.3404  139.5863  165.9071 C.ar    1  UNL1       -0.0002
     24 C         138.3773  140.7900  165.0128 C.ar    1  UNL1       -0.0007
     25 C         137.8157  142.9506  162.8661 C.3     1  UNL1        0.2222
     26 N         138.1397  144.3413  162.4068 N.pl3   1  UNL1       -0.2588
     27 H         137.6915  144.7148  161.6138 H       1  UNL1        0.2589
     28 N         139.2430  145.0533  164.6487 N.pl3   1  UNL1       -0.1298
     29 C         139.1465  145.1631  163.1558 C.cat   1  UNL1        0.3770
     30 N         140.0569  146.0947  162.4119 N.pl3   1  UNL1       -0.2892
     31 H         139.9038  145.5927  165.1402 H       1  UNL1        0.3062
     32 H         140.7177  146.6341  162.9034 H       1  UNL1        0.2546
     33 H         139.9935  146.1668  161.4321 H       1  UNL1        0.2546
@<TRIPOS>BOND
     1    28    29    2
     2    29    30    1
     3    29    26    1
     4    26    25    1
     5    18    25    1
     6    18     1    1
     7     1     2    1
     8     2     3   ar
     9     3     4   ar
    10     4     5   ar
    11     5     6   ar
    12     6     7   ar
    13     7     8   ar
    14     8    11    1
    15    11    12   ar
    16    12    13   ar
    17    13    14   ar
    18    14    15   ar
    19    15    16   ar
    20    16    17    1
    21     8     9   ar
    22     9    10   ar
    23    18    19    1
    24    19    20   ar
    25    20    21   ar
    26    21    22   ar
    27    22    23   ar
    28    23    24   ar
    29    10     2   ar
    30    24    19   ar
    31    10     5   ar
    32    16    11   ar
    33    28    31    1
    34    30    32    1
    35    30    33    1
    36    26    27    1
@<TRIPOS>MOLECULE
*****
 33 36 0 0 0
SMALL
GASTEIGER

@<TRIPOS>ATOM
      1 O         142.0666  145.2976  162.9659 O.3     1  UNL1       -0.4538
      2 C         143.0602  144.1763  163.0390 C.ar    1  UNL1        0.2642
      3 N         144.4375  144.1786  162.4451 N.ar    1  UNL1       -0.0388
      4 O         145.0794  142.8595  162.7579 O.2     1  UNL1       -0.3504
      5 C         144.0987  142.0419  163.5452 C.ar    1  UNL1        0.1800
      6 C         144.1809  140.6615  164.1264 C.ar    1  UNL1        0.0404
      7 C         143.0151  140.0950  164.8812 C.ar    1  UNL1        0.0033
      8 C         141.7671  140.9088  165.0549 C.ar    1  UNL1        0.0012
      9 C         141.6849  142.2892  164.4738 C.ar    1  UNL1        0.0079
     10 C         142.8507  142.8557  163.7190 C.ar    1  UNL1        0.0932
     11 C         140.6012  140.3422  165.8099 C.ar    1  UNL1        0.0106
     12 C         140.5579  140.4392  167.3061 C.ar    1  UNL1        0.0008
     13 C         139.3920  139.8726  168.0610 C.ar    1  UNL1        0.0001
     14 C         138.2696  139.2090  167.3196 C.ar    1  UNL1        0.0009
     15 C         138.3130  139.1119  165.8233 C.ar    1  UNL1        0.0114
     16 C         139.4788  139.6785  165.0685 C.ar    1  UNL1        0.0576
     17 CL        139.5222  139.5815  163.5722 Cl      1  UNL1       -0.0822
     18 C         140.7620  145.0985  162.2526 C.3     1  UNL1        0.2290
     19 C         139.6170  144.4317  162.9557 C.ar    1  UNL1        0.0207
     20 C         139.2128  144.8847  164.3273 C.ar    1  UNL1       -0.0007
     21 C         138.0677  144.2179  165.0303 C.ar    1  UNL1       -0.0002
     22 C         137.3270  143.0980  164.3617 C.ar    1  UNL1       -0.0000
     23 C         137.7312  142.6450  162.9901 C.ar    1  UNL1       -0.0002
     24 C         138.8762  143.3118  162.2871 C.ar    1  UNL1       -0.0007
     25 C         140.6026  145.5662  160.8364 C.3     1  UNL1        0.2222
     26 N         141.6604  145.2540  159.8198 N.pl3   1  UNL1       -0.2588
     27 H         142.4983  144.8189  160.0990 H       1  UNL1        0.2589
     28 N         142.5173  146.3102  157.6061 N.pl3   1  UNL1       -0.1298
     29 C         141.4418  145.6047  158.3779 C.cat   1  UNL1        0.3770
     30 N         140.1476  145.2498  157.7076 N.pl3   1  UNL1       -0.2892
     31 H         142.3738  146.5403  156.6597 H       1  UNL1        0.3062
     32 H         140.0041  145.4799  156.7612 H       1  UNL1        0.2546
     33 H         139.4417  144.7868  158.2141 H       1  UNL1        0.2546
@<TRIPOS>BOND
     1    28    29    2
     2    29    30    1
     3    29    26    1
     4    26    25    1
     5    18    25    1
     6    18     1    1
     7     1     2    1
     8     2     3   ar
     9     3     4   ar
    10     4     5   ar
    11     5     6   ar
    12     6     7   ar
    13     7     8   ar
    14     8    11    1
    15    11    12   ar
    16    12    13   ar
    17    13    14   ar
    18    14    15   ar
    19    15    16   ar
    20    16    17    1
    21     8     9   ar
    22     9    10   ar
    23    18    19    1
    24    19    20   ar
    25    20    21   ar
    26    21    22   ar
    27    22    23   ar
    28    23    24   ar
    29    10     2   ar
    30    24    19   ar
    31    10     5   ar
    32    16    11   ar
    33    28    31    1
    34    30    32    1
    35    30    33    1
    36    26    27    1
@<TRIPOS>MOLECULE
*****
 33 36 0 0 0
SMALL
GASTEIGER

@<TRIPOS>ATOM
      1 O         142.2947  140.3711  168.7626 O.3     1  UNL1       -0.4538
      2 C         140.8636  139.9832  168.5351 C.ar    1  UNL1        0.2642
      3 N         139.8068  139.8529  169.5916 N.ar    1  UNL1       -0.0388
      4 O         138.5283  139.4467  168.9206 O.2     1  UNL1       -0.3504
      5 C         138.7949  139.3260  167.4494 C.ar    1  UNL1        0.1800
      6 C         137.9099  138.9569  166.2959 C.ar    1  UNL1        0.0404
      7 C         138.4682  138.9195  164.9042 C.ar    1  UNL1        0.0033
      8 C         139.9116  139.2512  164.6660 C.ar    1  UNL1        0.0012
      9 C         140.7966  139.6202  165.8195 C.ar    1  UNL1        0.0079
     10 C         140.2383  139.6576  167.2112 C.ar    1  UNL1        0.0932
     11 C         140.4699  139.2137  163.2743 C.ar    1  UNL1        0.0106
     12 C         140.4077  140.4367  162.4081 C.ar    1  UNL1        0.0008
     13 C         140.9660  140.3993  161.0163 C.ar    1  UNL1        0.0001
     14 C         141.5866  139.1389  160.4908 C.ar    1  UNL1        0.0009
     15 C         141.6488  137.9158  161.3571 C.ar    1  UNL1        0.0114
     16 C         141.0905  137.9533  162.7488 C.ar    1  UNL1        0.0576
     17 CL        141.1527  136.7302  163.6150 Cl      1  UNL1       -0.0822
     18 C         142.7755  141.7338  168.3601 C.3     1  UNL1        0.2290
     19 C         142.4399  142.2768  167.0027 C.ar    1  UNL1        0.0207
     20 C         143.4562  142.2223  165.9008 C.ar    1  UNL1       -0.0007
     21 C         143.1206  142.7653  164.5434 C.ar    1  UNL1       -0.0002
     22 C         141.7687  143.3628  164.2880 C.ar    1  UNL1       -0.0000
     23 C         140.7524  143.4174  165.3898 C.ar    1  UNL1       -0.0002
     24 C         141.0880  142.8744  166.7472 C.ar    1  UNL1       -0.0007
     25 C         143.5918  142.5535  169.3150 C.3     1  UNL1        0.2222
     26 N         143.2393  142.5789  170.7727 N.pl3   1  UNL1       -0.2588
     27 H         143.8643  142.9729  171.4234 H       1  UNL1        0.2589
     28 N         141.9059  140.6730  171.9300 N.pl3   1  UNL1       -0.1298
     29 C         141.9347  142.0041  171.2391 C.cat   1  UNL1        0.3770
     30 N         140.6589  142.7603  171.0145 N.pl3   1  UNL1       -0.2892
     31 H         141.0496  140.2957  172.2361 H       1  UNL1        0.3062
     32 H         139.8027  142.3831  171.3206 H       1  UNL1        0.2546
     33 H         140.6779  143.6340  170.5611 H       1  UNL1        0.2546
@<TRIPOS>BOND
     1    28    29    2
     2    29    30    1
     3    29    26    1
     4    26    25    1
     5    18    25    1
     6    18     1    1
     7     1     2    1
     8     2     3   ar
     9     3     4   ar
    10     4     5   ar
    11     5     6   ar
    12     6     7   ar
    13     7     8   ar
    14     8    11    1
    15    11    12   ar
    16    12    13   ar
    17    13    14   ar
    18    14    15   ar
    19    15    16   ar
    20    16    17    1
    21     8     9   ar
    22     9    10   ar
    23    18    19    1
    24    19    20   ar
    25    20    21   ar
    26    21    22   ar
    27    22    23   ar
    28    23    24   ar
    29    10     2   ar
    30    24    19   ar
    31    10     5   ar
    32    16    11   ar
    33    28    31    1
    34    30    32    1
    35    30    33    1
    36    26    27    1
@<TRIPOS>MOLECULE
*****
 33 36 0 0 0
SMALL
GASTEIGER

@<TRIPOS>ATOM
      1 O         143.7568  142.8718  163.2790 O.3     1  UNL1       -0.4538
      2 C         143.9638  141.4284  163.6309 C.ar    1  UNL1        0.2642
      3 N         144.6069  140.3917  162.7582 N.ar    1  UNL1       -0.0388
      4 O         144.6047  139.0909  163.5052 O.2     1  UNL1       -0.3504
      5 C         143.9602  139.3238  164.8396 C.ar    1  UNL1        0.1800
      6 C         143.6829  138.4070  165.9939 C.ar    1  UNL1        0.0404
      7 C         143.0095  138.9349  167.2259 C.ar    1  UNL1        0.0033
      8 C         142.6134  140.3795  167.3035 C.ar    1  UNL1        0.0012
      9 C         142.8907  141.2963  166.1492 C.ar    1  UNL1        0.0079
     10 C         143.5642  140.7684  164.9172 C.ar    1  UNL1        0.0932
     11 C         141.9400  140.9074  168.5356 C.ar    1  UNL1        0.0106
     12 C         142.7437  141.6196  169.5829 C.ar    1  UNL1        0.0008
     13 C         142.0702  142.1474  170.8149 C.ar    1  UNL1        0.0001
     14 C         140.5931  141.9631  170.9996 C.ar    1  UNL1        0.0009
     15 C         139.7894  141.2509  169.9523 C.ar    1  UNL1        0.0114
     16 C         140.4628  140.7231  168.7203 C.ar    1  UNL1        0.0576
     17 CL        139.6592  140.0108  167.6729 Cl      1  UNL1       -0.0822
     18 C         142.4116  143.3447  162.8130 C.3     1  UNL1        0.2290
     19 C         141.1771  142.9625  163.5746 C.ar    1  UNL1        0.0207
     20 C         140.7482  143.7715  164.7627 C.ar    1  UNL1       -0.0007
     21 C         139.5137  143.3893  165.5242 C.ar    1  UNL1       -0.0002
     22 C         138.7082  142.1980  165.0977 C.ar    1  UNL1       -0.0000
     23 C         139.1371  141.3890  163.9097 C.ar    1  UNL1       -0.0002
     24 C         140.3716  141.7712  163.1481 C.ar    1  UNL1       -0.0007
     25 C         142.3009  144.1997  161.5856 C.3     1  UNL1        0.2222
     26 N         141.5092  145.4730  161.6274 N.pl3   1  UNL1       -0.2588
     27 H         141.9154  146.2936  161.9892 H       1  UNL1        0.2589
     28 N         139.3013  146.7655  161.1749 N.pl3   1  UNL1       -0.1298
     29 C         140.0986  145.4962  161.1179 C.cat   1  UNL1        0.3770
     30 N         139.4852  144.2501  160.5513 N.pl3   1  UNL1       -0.2892
     31 H         138.3754  146.7807  160.8405 H       1  UNL1        0.3062
     32 H         138.5594  144.2652  160.2169 H       1  UNL1        0.2546
     33 H         140.0085  143.4170  160.5139 H       1  UNL1        0.2546
@<TRIPOS>BOND
     1    28    29    2
     2    29    30    1
     3    29    26    1
     4    26    25    1
     5    18    25    1
     6    18     1    1
     7     1     2    1
     8     2     3   ar
     9     3     4   ar
    10     4     5   ar
    11     5     6   ar
    12     6     7   ar
    13     7     8   ar
    14     8    11    1
    15    11    12   ar
    16    12    13   ar
    17    13    14   ar
    18    14    15   ar
    19    15    16   ar
    20    16    17    1
    21     8     9   ar
    22     9    10   ar
    23    18    19    1
    24    19    20   ar
    25    20    21   ar
    26    21    22   ar
    27    22    23   ar
    28    23    24   ar
    29    10     2   ar
    30    24    19   ar
    31    10     5   ar
    32    16    11   ar
    33    28    31    1
    34    30    32    1
    35    30    33    1
    36    26    27    1
@<TRIPOS>MOLECULE
*****
 33 36 0 0 0
SMALL
GASTEIGER

@<TRIPOS>ATOM
      1 O         137.8917  139.3196  165.7071 O.3     1  UNL1       -0.4538
      2 C         138.6069  139.5125  167.0114 C.ar    1  UNL1        0.2642
      3 N         138.0348  139.2646  168.3757 N.ar    1  UNL1       -0.0388
      4 O         139.0942  139.5860  169.3878 O.2     1  UNL1       -0.3504
      5 C         140.3209  140.0326  168.6491 C.ar    1  UNL1        0.1800
      6 C         141.6732  140.4748  169.1241 C.ar    1  UNL1        0.0404
      7 C         142.7244  140.8715  168.1303 C.ar    1  UNL1        0.0033
      8 C         142.4232  140.8260  166.6616 C.ar    1  UNL1        0.0012
      9 C         141.0709  140.3838  166.1866 C.ar    1  UNL1        0.0079
     10 C         140.0197  139.9871  167.1804 C.ar    1  UNL1        0.0932
     11 C         143.4745  141.2227  165.6678 C.ar    1  UNL1        0.0106
     12 C         143.8656  142.6637  165.5247 C.ar    1  UNL1        0.0008
     13 C         144.9169  143.0604  164.5309 C.ar    1  UNL1        0.0001
     14 C         145.5770  142.0161  163.6803 C.ar    1  UNL1        0.0009
     15 C         145.1858  140.5750  163.8234 C.ar    1  UNL1        0.0114
     16 C         144.1346  140.1784  164.8171 C.ar    1  UNL1        0.0576
     17 CL        143.7434  138.7373  164.9602 Cl      1  UNL1       -0.0822
     18 C         138.4321  139.9457  164.4556 C.3     1  UNL1        0.2290
     19 C         139.5279  139.2657  163.6896 C.ar    1  UNL1        0.0207
     20 C         140.3068  140.0277  162.6587 C.ar    1  UNL1       -0.0007
     21 C         141.4026  139.3477  161.8927 C.ar    1  UNL1       -0.0002
     22 C         141.7194  137.9057  162.1575 C.ar    1  UNL1       -0.0000
     23 C         140.9405  137.1437  163.1884 C.ar    1  UNL1       -0.0002
     24 C         139.8447  137.8237  163.9544 C.ar    1  UNL1       -0.0007
     25 C         137.8766  141.2518  163.9703 C.3     1  UNL1        0.2222
     26 N         138.1929  142.5207  164.7049 N.pl3   1  UNL1       -0.2588
     27 H         138.3468  142.5013  165.6771 H       1  UNL1        0.2589
     28 N         139.0593  144.9637  164.5281 N.pl3   1  UNL1       -0.1298
     29 C         138.2746  143.8192  163.9585 C.cat   1  UNL1        0.3770
     30 N         137.5716  143.9732  162.6424 N.pl3   1  UNL1       -0.2892
     31 H         139.1130  145.8159  164.0381 H       1  UNL1        0.3062
     32 H         137.6253  144.8254  162.1524 H       1  UNL1        0.2546
     33 H         137.0566  143.2220  162.2685 H       1  UNL1        0.2546
@<TRIPOS>BOND
     1    28    29    2
     2    29    30    1
     3    29    26    1
     4    26    25    1
     5    18    25    1
     6    18     1    1
     7     1     2    1
     8     2     3   ar
     9     3     4   ar
    10     4     5   ar
    11     5     6   ar
    12     6     7   ar
    13     7     8   ar
    14     8    11    1
    15    11    12   ar
    16    12    13   ar
    17    13    14   ar
    18    14    15   ar
    19    15    16   ar
    20    16    17    1
    21     8     9   ar
    22     9    10   ar
    23    18    19    1
    24    19    20   ar
    25    20    21   ar
    26    21    22   ar
    27    22    23   ar
    28    23    24   ar
    29    10     2   ar
    30    24    19   ar
    31    10     5   ar
    32    16    11   ar
    33    28    31    1
    34    30    32    1
    35    30    33    1
    36    26    27    1
