@<TRIPOS>MOLECULE
*****
 34 38 0 0 0
SMALL
GASTEIGER

@<TRIPOS>ATOM
      1 N         141.2594  144.9898  162.9587 N.3     1  UNL1       -0.2712
      2 C         142.6629  144.6976  162.5174 C.3     1  UNL1        0.0738
      3 C         143.2469  143.6922  163.4651 C.3     1  UNL1        0.0372
      4 C         144.4753  142.8902  163.7780 C.3     1  UNL1        0.0245
      5 C         144.1919  142.0653  164.9984 C.3     1  UNL1        0.0909
      6 N         142.7883  142.3576  165.4397 N.pl3   1  UNL1       -0.3077
      7 C         142.2043  143.3630  164.4921 C.3     1  UNL1        0.0901
      8 C         140.9760  144.1650  164.1791 C.3     1  UNL1        0.0921
      9 C         142.0912  141.7508  166.6212 C.ar    1  UNL1        0.0478
     10 C         142.4187  140.3505  167.0476 C.ar    1  UNL1        0.0145
     11 C         141.7216  139.7438  168.2291 C.ar    1  UNL1        0.0051
     12 C         140.6970  140.5374  168.9842 C.ar    1  UNL1        0.0715
     13 C         140.3694  141.9378  168.5579 C.ar    1  UNL1        0.0051
     14 C         141.0665  142.5445  167.3764 C.ar    1  UNL1        0.0145
     15 C         139.9998  139.9307  170.1657 C.3     1  UNL1        0.4186
     16 F         139.3027  139.3240  171.3472 F       1  UNL1       -0.1659
     17 F         138.7523  140.6876  169.8183 F       1  UNL1       -0.1659
     18 F         141.2474  139.1738  170.5131 F       1  UNL1       -0.1659
     19 C         140.3066  145.9400  162.2960 C.3     1  UNL1        0.0731
     20 C         140.0099  145.8053  160.8319 C.3     1  UNL1        0.0294
     21 C         140.6863  144.7372  160.0246 C.3     1  UNL1        0.0666
     22 S         139.9767  143.4455  159.7454 S.3     1  UNL1       -0.0756
     23 C         141.0252  141.0118  161.6499 C.3     1  UNL1        0.1340
     24 N         139.6710  141.6543  161.7058 N.ar    1  UNL1       -0.2872
     25 C         139.1890  142.7729  160.8304 C.ar    1  UNL1        0.1933
     26 N         137.7810  143.1010  161.2304 N.ar    1  UNL1       -0.1221
     27 N         137.3928  142.1850  162.3530 N.ar    1  UNL1       -0.1266
     28 C         138.5608  141.2909  162.6469 C.ar    1  UNL1        0.1864
     29 C         138.6100  140.2212  163.6973 C.ar    1  UNL1        0.1387
     30 C         138.4659  140.5848  165.1454 C.ar    1  UNL1        0.0257
     31 C         138.5152  139.5152  166.1958 C.ar    1  UNL1        0.0242
     32 C         138.7085  138.0818  165.7980 C.ar    1  UNL1        0.1222
     33 N         138.8526  137.7181  164.3499 N.ar    1  UNL1       -0.1463
     34 N         138.8034  138.7879  163.2996 N.ar    1  UNL1       -0.1448
@<TRIPOS>BOND
     1    23    24    1
     2    24    25   ar
     3    25    22    1
     4    22    21    1
     5    21    20    1
     6    20    19    1
     7    19     1    1
     8     1     2    1
     9     2     3    1
    10     3     4    1
    11     4     5    1
    12     5     6    1
    13     6     9    1
    14     9    10   ar
    15    10    11   ar
    16    11    12   ar
    17    12    15    1
    18    15    16    1
    19    15    17    1
    20    15    18    1
    21    12    13   ar
    22    13    14   ar
    23     6     7    1
    24     7     8    1
    25    25    26   ar
    26    26    27   ar
    27    27    28   ar
    28    28    29    1
    29    29    30   ar
    30    30    31   ar
    31    31    32   ar
    32    32    33   ar
    33    33    34   ar
    34    28    24   ar
    35    34    29   ar
    36     8     1    1
    37     7     3    1
    38    14     9   ar
@<TRIPOS>MOLECULE
*****
 34 38 0 0 0
SMALL
GASTEIGER

@<TRIPOS>ATOM
      1 N         142.4007  138.0791  162.5700 N.3     1  UNL1       -0.2712
      2 C         141.0114  137.5138  162.5549 C.3     1  UNL1        0.0738
      3 C         140.3023  137.9939  163.7864 C.3     1  UNL1        0.0372
      4 C         139.0054  137.9413  164.5382 C.3     1  UNL1        0.0245
      5 C         139.1549  138.7707  165.7791 C.3     1  UNL1        0.0909
      6 N         140.5443  139.3360  165.7941 N.pl3   1  UNL1       -0.3077
      7 C         141.2534  138.8559  164.5626 C.3     1  UNL1        0.0901
      8 C         142.5503  138.9085  163.8108 C.3     1  UNL1        0.0921
      9 C         141.1229  140.2253  166.8545 C.ar    1  UNL1        0.0478
     10 C         140.5778  141.6085  167.0529 C.ar    1  UNL1        0.0145
     11 C         141.1564  142.4978  168.1133 C.ar    1  UNL1        0.0051
     12 C         142.2801  142.0038  168.9753 C.ar    1  UNL1        0.0715
     13 C         142.8253  140.6204  168.7770 C.ar    1  UNL1        0.0051
     14 C         142.2467  139.7312  167.7166 C.ar    1  UNL1        0.0145
     15 C         142.8588  142.8930  170.0357 C.3     1  UNL1        0.4186
     16 F         143.4374  143.7822  171.0961 F       1  UNL1       -0.1659
     17 F         144.1216  142.0836  170.0254 F       1  UNL1       -0.1659
     18 F         141.5959  143.7024  170.0461 F       1  UNL1       -0.1659
     19 C         143.4554  137.8544  161.5273 C.3     1  UNL1        0.0731
     20 C         143.4621  138.6825  160.2766 C.3     1  UNL1        0.0294
     21 C         142.6148  138.2802  159.1060 C.3     1  UNL1        0.0666
     22 S         141.5434  139.2019  158.6036 S.3     1  UNL1       -0.0756
     23 C         141.4733  141.8869  160.4571 C.3     1  UNL1        0.1340
     24 N         140.3923  140.8511  160.3643 N.ar    1  UNL1       -0.2872
     25 C         140.4245  139.6170  159.5124 C.ar    1  UNL1        0.1933
     26 N         139.1414  138.8707  159.7287 N.ar    1  UNL1       -0.1221
     27 N         138.3162  139.6437  160.7144 N.ar    1  UNL1       -0.1266
     28 C         139.0892  140.8677  161.1072 C.ar    1  UNL1        0.1864
     29 C         138.6384  141.9229  162.0733 C.ar    1  UNL1        0.1387
     30 C         138.5414  141.6078  163.5367 C.ar    1  UNL1        0.0257
     31 C         138.0906  142.6630  164.5027 C.ar    1  UNL1        0.0242
     32 C         137.7367  144.0333  164.0054 C.ar    1  UNL1        0.1222
     33 N         137.8337  144.3483  162.5420 N.ar    1  UNL1       -0.1463
     34 N         138.2845  143.2930  161.5760 N.ar    1  UNL1       -0.1448
@<TRIPOS>BOND
     1    23    24    1
     2    24    25   ar
     3    25    22    1
     4    22    21    1
     5    21    20    1
     6    20    19    1
     7    19     1    1
     8     1     2    1
     9     2     3    1
    10     3     4    1
    11     4     5    1
    12     5     6    1
    13     6     9    1
    14     9    10   ar
    15    10    11   ar
    16    11    12   ar
    17    12    15    1
    18    15    16    1
    19    15    17    1
    20    15    18    1
    21    12    13   ar
    22    13    14   ar
    23     6     7    1
    24     7     8    1
    25    25    26   ar
    26    26    27   ar
    27    27    28   ar
    28    28    29    1
    29    29    30   ar
    30    30    31   ar
    31    31    32   ar
    32    32    33   ar
    33    33    34   ar
    34    28    24   ar
    35    34    29   ar
    36     8     1    1
    37     7     3    1
    38    14     9   ar
@<TRIPOS>MOLECULE
*****
 34 38 0 0 0
SMALL
GASTEIGER

@<TRIPOS>ATOM
      1 N         138.4339  142.9282  163.2256 N.3     1  UNL1       -0.2712
      2 C         137.9571  141.7396  162.4447 C.3     1  UNL1        0.0738
      3 C         138.4300  140.5024  163.1488 C.3     1  UNL1        0.0372
      4 C         138.4275  139.0031  163.1013 C.3     1  UNL1        0.0245
      5 C         139.1951  138.5005  164.2880 C.3     1  UNL1        0.0909
      6 N         139.6720  139.6892  165.0689 N.pl3   1  UNL1       -0.3077
      7 C         139.1991  140.9263  164.3648 C.3     1  UNL1        0.0901
      8 C         139.2015  142.4256  164.4123 C.3     1  UNL1        0.0921
      9 C         140.4799  139.6479  166.3321 C.ar    1  UNL1        0.0478
     10 C         141.9155  139.2153  166.2903 C.ar    1  UNL1        0.0145
     11 C         142.7234  139.1740  167.5535 C.ar    1  UNL1        0.0051
     12 C         142.0956  139.5652  168.8584 C.ar    1  UNL1        0.0715
     13 C         140.6599  139.9978  168.9002 C.ar    1  UNL1        0.0051
     14 C         139.8520  140.0391  167.6370 C.ar    1  UNL1        0.0145
     15 C         142.9035  139.5239  170.1216 C.3     1  UNL1        0.4186
     16 F         143.7114  139.4826  171.3848 F       1  UNL1       -0.1659
     17 F         142.7606  138.0313  170.1642 F       1  UNL1       -0.1659
     18 F         143.0464  141.0165  170.0790 F       1  UNL1       -0.1659
     19 C         138.1866  144.3668  162.8804 C.3     1  UNL1        0.0731
     20 C         139.3361  145.3271  162.7999 C.3     1  UNL1        0.0294
     21 C         139.6566  146.0062  161.5013 C.3     1  UNL1        0.0666
     22 S         140.6671  145.4050  160.5700 S.3     1  UNL1       -0.0756
     23 C         140.4777  142.1877  160.0576 C.3     1  UNL1        0.1340
     24 N         141.5449  142.8947  160.8394 N.ar    1  UNL1       -0.2872
     25 C         141.6320  144.3735  161.0749 C.ar    1  UNL1        0.1933
     26 N         142.8534  144.6398  161.9039 N.ar    1  UNL1       -0.1221
     27 N         143.5212  143.3255  162.1808 N.ar    1  UNL1       -0.1266
     28 C         142.7126  142.2469  161.5229 C.ar    1  UNL1        0.1864
     29 C         143.0179  140.7784  161.5447 C.ar    1  UNL1        0.1387
     30 C         142.4162  139.9029  162.6037 C.ar    1  UNL1        0.0257
     31 C         142.7215  138.4345  162.6255 C.ar    1  UNL1        0.0242
     32 C         143.6287  137.8416  161.5882 C.ar    1  UNL1        0.1222
     33 N         144.2304  138.7172  160.5293 N.ar    1  UNL1       -0.1463
     34 N         143.9250  140.1856  160.5076 N.ar    1  UNL1       -0.1448
@<TRIPOS>BOND
     1    23    24    1
     2    24    25   ar
     3    25    22    1
     4    22    21    1
     5    21    20    1
     6    20    19    1
     7    19     1    1
     8     1     2    1
     9     2     3    1
    10     3     4    1
    11     4     5    1
    12     5     6    1
    13     6     9    1
    14     9    10   ar
    15    10    11   ar
    16    11    12   ar
    17    12    15    1
    18    15    16    1
    19    15    17    1
    20    15    18    1
    21    12    13   ar
    22    13    14   ar
    23     6     7    1
    24     7     8    1
    25    25    26   ar
    26    26    27   ar
    27    27    28   ar
    28    28    29    1
    29    29    30   ar
    30    30    31   ar
    31    31    32   ar
    32    32    33   ar
    33    33    34   ar
    34    28    24   ar
    35    34    29   ar
    36     8     1    1
    37     7     3    1
    38    14     9   ar
@<TRIPOS>MOLECULE
*****
 34 38 0 0 0
SMALL
GASTEIGER

@<TRIPOS>ATOM
      1 N         143.2195  139.1395  162.6981 N.3     1  UNL1       -0.2712
      2 C         144.4587  139.9079  162.3461 C.3     1  UNL1        0.0738
      3 C         144.6324  140.9977  163.3621 C.3     1  UNL1        0.0372
      4 C         145.5057  142.1462  163.7724 C.3     1  UNL1        0.0245
      5 C         144.9137  142.7612  165.0058 C.3     1  UNL1        0.0909
      6 N         143.6744  141.9927  165.3578 N.pl3   1  UNL1       -0.3077
      7 C         143.5007  140.9028  164.3419 C.3     1  UNL1        0.0901
      8 C         142.6274  139.7543  163.9316 C.3     1  UNL1        0.0921
      9 C         142.7682  142.2660  166.5214 C.ar    1  UNL1        0.0478
     10 C         143.3203  142.2760  167.9160 C.ar    1  UNL1        0.0145
     11 C         142.4141  142.5493  169.0796 C.ar    1  UNL1        0.0051
     12 C         140.9556  142.8128  168.8486 C.ar    1  UNL1        0.0715
     13 C         140.4033  142.8028  167.4539 C.ar    1  UNL1        0.0051
     14 C         141.3096  142.5295  166.2903 C.ar    1  UNL1        0.0145
     15 C         140.0493  143.0861  170.0122 C.3     1  UNL1        0.4186
     16 F         139.1430  143.3595  171.1758 F       1  UNL1       -0.1659
     17 F         140.5086  144.5139  170.0344 F       1  UNL1       -0.1659
     18 F         139.5901  141.6583  169.9899 F       1  UNL1       -0.1659
     19 C         142.6690  137.9627  161.9483 C.3     1  UNL1        0.0731
     20 C         143.2215  137.6075  160.5998 C.3     1  UNL1        0.0294
     21 C         142.4316  137.9123  159.3615 C.3     1  UNL1        0.0666
     22 S         141.9178  139.3011  159.1226 S.3     1  UNL1       -0.0756
     23 C         141.7404  141.9177  161.0648 C.3     1  UNL1        0.1340
     24 N         140.6123  140.9850  160.7367 N.ar    1  UNL1       -0.2872
     25 C         140.6939  139.7823  159.8440 C.ar    1  UNL1        0.1933
     26 N         139.3366  139.1453  159.7993 N.ar    1  UNL1       -0.1221
     27 N         138.4161  139.9543  160.6643 N.ar    1  UNL1       -0.1266
     28 C         139.2045  141.0913  161.2437 C.ar    1  UNL1        0.1864
     29 C         138.6777  142.1489  162.1678 C.ar    1  UNL1        0.1387
     30 C         138.5214  141.8566  163.6307 C.ar    1  UNL1        0.0257
     31 C         137.9946  142.9141  164.5548 C.ar    1  UNL1        0.0242
     32 C         137.6241  144.2641  164.0159 C.ar    1  UNL1        0.1222
     33 N         137.7804  144.5565  162.5530 N.ar    1  UNL1       -0.1463
     34 N         138.3072  143.4988  161.6290 N.ar    1  UNL1       -0.1448
@<TRIPOS>BOND
     1    23    24    1
     2    24    25   ar
     3    25    22    1
     4    22    21    1
     5    21    20    1
     6    20    19    1
     7    19     1    1
     8     1     2    1
     9     2     3    1
    10     3     4    1
    11     4     5    1
    12     5     6    1
    13     6     9    1
    14     9    10   ar
    15    10    11   ar
    16    11    12   ar
    17    12    15    1
    18    15    16    1
    19    15    17    1
    20    15    18    1
    21    12    13   ar
    22    13    14   ar
    23     6     7    1
    24     7     8    1
    25    25    26   ar
    26    26    27   ar
    27    27    28   ar
    28    28    29    1
    29    29    30   ar
    30    30    31   ar
    31    31    32   ar
    32    32    33   ar
    33    33    34   ar
    34    28    24   ar
    35    34    29   ar
    36     8     1    1
    37     7     3    1
    38    14     9   ar
@<TRIPOS>MOLECULE
*****
 34 38 0 0 0
SMALL
GASTEIGER

@<TRIPOS>ATOM
      1 N         140.8012  143.5479  159.9558 N.3     1  UNL1       -0.2712
      2 C         141.2928  144.7608  160.6887 C.3     1  UNL1        0.0738
      3 C         141.1164  144.5175  162.1583 C.3     1  UNL1        0.0372
      4 C         141.3111  145.1167  163.5195 C.3     1  UNL1        0.0245
      5 C         140.8309  144.1238  164.5362 C.3     1  UNL1        0.0909
      6 N         140.3393  142.9108  163.8032 N.pl3   1  UNL1       -0.3077
      7 C         140.5157  143.1542  162.3336 C.3     1  UNL1        0.0901
      8 C         140.3210  142.5550  160.9723 C.3     1  UNL1        0.0921
      9 C         139.7711  141.6721  164.4298 C.ar    1  UNL1        0.0478
     10 C         138.9984  140.6954  163.5937 C.ar    1  UNL1        0.0145
     11 C         138.4302  139.4567  164.2203 C.ar    1  UNL1        0.0051
     12 C         138.6346  139.1946  165.6830 C.ar    1  UNL1        0.0715
     13 C         139.4073  140.1713  166.5191 C.ar    1  UNL1        0.0051
     14 C         139.9755  141.4101  165.8925 C.ar    1  UNL1        0.0145
     15 C         138.0664  137.9559  166.3096 C.3     1  UNL1        0.4186
     16 F         137.4981  136.7172  166.9362 F       1  UNL1       -0.1659
     17 F         138.8472  137.1109  165.3472 F       1  UNL1       -0.1659
     18 F         137.2855  138.8009  167.2720 F       1  UNL1       -0.1659
     19 C         140.7915  143.3608  158.4675 C.3     1  UNL1        0.0731
     20 C         141.9376  142.6687  157.7912 C.3     1  UNL1        0.0294
     21 C         143.3243  143.2296  157.9033 C.3     1  UNL1        0.0666
     22 S         144.4584  142.3461  158.3313 S.3     1  UNL1       -0.0756
     23 C         144.0960  142.4066  161.5739 C.3     1  UNL1        0.1340
     24 N         144.0278  141.1882  160.7017 N.ar    1  UNL1       -0.2872
     25 C         144.1944  141.1603  159.2113 C.ar    1  UNL1        0.1933
     26 N         144.0506  139.7386  158.7552 N.ar    1  UNL1       -0.1221
     27 N         143.7952  138.8877  159.9639 N.ar    1  UNL1       -0.1266
     28 C         143.7811  139.7836  161.1669 C.ar    1  UNL1        0.1864
     29 C         143.5592  139.3508  162.5859 C.ar    1  UNL1        0.1387
     30 C         142.2309  138.7905  163.0002 C.ar    1  UNL1        0.0257
     31 C         142.0091  138.3578  164.4192 C.ar    1  UNL1        0.0242
     32 C         143.1156  138.4854  165.4239 C.ar    1  UNL1        0.1222
     33 N         144.4439  139.0458  165.0096 N.ar    1  UNL1       -0.1463
     34 N         144.6657  139.4785  163.5906 N.ar    1  UNL1       -0.1448
@<TRIPOS>BOND
     1    23    24    1
     2    24    25   ar
     3    25    22    1
     4    22    21    1
     5    21    20    1
     6    20    19    1
     7    19     1    1
     8     1     2    1
     9     2     3    1
    10     3     4    1
    11     4     5    1
    12     5     6    1
    13     6     9    1
    14     9    10   ar
    15    10    11   ar
    16    11    12   ar
    17    12    15    1
    18    15    16    1
    19    15    17    1
    20    15    18    1
    21    12    13   ar
    22    13    14   ar
    23     6     7    1
    24     7     8    1
    25    25    26   ar
    26    26    27   ar
    27    27    28   ar
    28    28    29    1
    29    29    30   ar
    30    30    31   ar
    31    31    32   ar
    32    32    33   ar
    33    33    34   ar
    34    28    24   ar
    35    34    29   ar
    36     8     1    1
    37     7     3    1
    38    14     9   ar
@<TRIPOS>MOLECULE
*****
 34 38 0 0 0
SMALL
GASTEIGER

@<TRIPOS>ATOM
      1 N         142.6251  142.1184  161.0405 N.3     1  UNL1       -0.2712
      2 C         143.2725  140.7767  160.8658 C.3     1  UNL1        0.0738
      3 C         143.1932  140.0498  162.1755 C.3     1  UNL1        0.0372
      4 C         143.5443  138.7712  162.8769 C.3     1  UNL1        0.0245
      5 C         143.0649  138.8735  164.2946 C.3     1  UNL1        0.0909
      6 N         142.4173  140.2153  164.4692 N.pl3   1  UNL1       -0.3077
      7 C         142.4967  140.9422  163.1596 C.3     1  UNL1        0.0901
      8 C         142.1455  142.2207  162.4581 C.3     1  UNL1        0.0921
      9 C         141.7991  140.7382  165.7319 C.ar    1  UNL1        0.0478
     10 C         141.7524  139.8749  166.9576 C.ar    1  UNL1        0.0145
     11 C         141.1341  140.3978  168.2202 C.ar    1  UNL1        0.0051
     12 C         140.5626  141.7841  168.2572 C.ar    1  UNL1        0.0715
     13 C         140.6092  142.6476  167.0314 C.ar    1  UNL1        0.0051
     14 C         141.2275  142.1246  165.7688 C.ar    1  UNL1        0.0145
     15 C         139.9443  142.3071  169.5198 C.3     1  UNL1        0.4186
     16 F         139.3260  142.8300  170.7825 F       1  UNL1       -0.1659
     17 F         140.7894  143.5425  169.4220 F       1  UNL1       -0.1659
     18 F         139.0992  141.0717  169.6177 F       1  UNL1       -0.1659
     19 C         142.4821  143.1728  159.9832 C.3     1  UNL1        0.0731
     20 C         141.5563  142.9518  158.8239 C.3     1  UNL1        0.0294
     21 C         140.1890  143.5688  158.8276 C.3     1  UNL1        0.0666
     22 S         138.9791  142.7095  159.0455 S.3     1  UNL1       -0.0756
     23 C         139.7514  139.9456  160.5991 C.3     1  UNL1        0.1340
     24 N         138.9206  141.0654  161.1523 N.ar    1  UNL1       -0.2872
     25 C         138.5656  142.3358  160.4382 C.ar    1  UNL1        0.1933
     26 N         137.7246  143.1669  161.3611 N.ar    1  UNL1       -0.1221
     27 N         137.5598  142.4101  162.6457 N.ar    1  UNL1       -0.1266
     28 C         138.2990  141.1113  162.5167 C.ar    1  UNL1        0.1864
     29 C         138.3990  140.0455  163.5675 C.ar    1  UNL1        0.1387
     30 C         138.1240  140.3801  165.0036 C.ar    1  UNL1        0.0257
     31 C         138.2240  139.3143  166.0544 C.ar    1  UNL1        0.0242
     32 C         138.5990  137.9140  165.6690 C.ar    1  UNL1        0.1222
     33 N         138.8740  137.5794  164.2328 N.ar    1  UNL1       -0.1463
     34 N         138.7740  138.6452  163.1821 N.ar    1  UNL1       -0.1448
@<TRIPOS>BOND
     1    23    24    1
     2    24    25   ar
     3    25    22    1
     4    22    21    1
     5    21    20    1
     6    20    19    1
     7    19     1    1
     8     1     2    1
     9     2     3    1
    10     3     4    1
    11     4     5    1
    12     5     6    1
    13     6     9    1
    14     9    10   ar
    15    10    11   ar
    16    11    12   ar
    17    12    15    1
    18    15    16    1
    19    15    17    1
    20    15    18    1
    21    12    13   ar
    22    13    14   ar
    23     6     7    1
    24     7     8    1
    25    25    26   ar
    26    26    27   ar
    27    27    28   ar
    28    28    29    1
    29    29    30   ar
    30    30    31   ar
    31    31    32   ar
    32    32    33   ar
    33    33    34   ar
    34    28    24   ar
    35    34    29   ar
    36     8     1    1
    37     7     3    1
    38    14     9   ar
@<TRIPOS>MOLECULE
*****
 34 38 0 0 0
SMALL
GASTEIGER

@<TRIPOS>ATOM
      1 N         142.0285  143.4902  159.7107 N.3     1  UNL1       -0.2712
      2 C         142.6056  142.6174  158.6359 C.3     1  UNL1        0.0738
      3 C         143.0889  141.3506  159.2774 C.3     1  UNL1        0.0372
      4 C         143.7443  140.0282  159.0096 C.3     1  UNL1        0.0245
      5 C         143.8710  139.3007  160.3153 C.3     1  UNL1        0.0909
      6 N         143.2939  140.1736  161.3901 N.pl3   1  UNL1       -0.3077
      7 C         142.8105  141.4405  160.7486 C.3     1  UNL1        0.0901
      8 C         142.1551  142.7629  161.0164 C.3     1  UNL1        0.0921
      9 C         143.2141  139.8385  162.8500 C.ar    1  UNL1        0.0478
     10 C         144.0327  140.6098  163.8424 C.ar    1  UNL1        0.0145
     11 C         143.9530  140.2746  165.3023 C.ar    1  UNL1        0.0051
     12 C         143.0546  139.1681  165.7698 C.ar    1  UNL1        0.0715
     13 C         142.2360  138.3967  164.7774 C.ar    1  UNL1        0.0051
     14 C         142.3157  138.7319  163.3175 C.ar    1  UNL1        0.0145
     15 C         142.9749  138.8330  167.2297 C.3     1  UNL1        0.4186
     16 F         142.8951  138.4978  168.6896 F       1  UNL1       -0.1659
     17 F         144.0822  137.8353  167.0611 F       1  UNL1       -0.1659
     18 F         141.8676  139.8307  167.3983 F       1  UNL1       -0.1659
     19 C         141.4298  144.8515  159.5143 C.3     1  UNL1        0.0731
     20 C         140.2839  145.2979  160.3731 C.3     1  UNL1        0.0294
     21 C         140.4848  145.5009  161.8457 C.3     1  UNL1        0.0666
     22 S         139.3714  145.1961  162.8036 S.3     1  UNL1       -0.0756
     23 C         140.4054  142.6884  164.6180 C.3     1  UNL1        0.1340
     24 N         139.2415  142.6714  163.6719 N.ar    1  UNL1       -0.2872
     25 C         138.7662  143.8240  162.8379 C.ar    1  UNL1        0.1933
     26 N         137.5795  143.3638  162.0443 N.ar    1  UNL1       -0.1221
     27 N         137.3213  141.9267  162.3878 N.ar    1  UNL1       -0.1266
     28 C         138.3485  141.4987  163.3937 C.ar    1  UNL1        0.1864
     29 C         138.4625  140.1371  164.0127 C.ar    1  UNL1        0.1387
     30 C         138.2922  139.9698  165.4936 C.ar    1  UNL1        0.0257
     31 C         138.4063  138.6083  166.1126 C.ar    1  UNL1        0.0242
     32 C         138.6907  137.4140  165.2507 C.ar    1  UNL1        0.1222
     33 N         138.8611  137.5813  163.7698 N.ar    1  UNL1       -0.1463
     34 N         138.7470  138.9429  163.1508 N.ar    1  UNL1       -0.1448
@<TRIPOS>BOND
     1    23    24    1
     2    24    25   ar
     3    25    22    1
     4    22    21    1
     5    21    20    1
     6    20    19    1
     7    19     1    1
     8     1     2    1
     9     2     3    1
    10     3     4    1
    11     4     5    1
    12     5     6    1
    13     6     9    1
    14     9    10   ar
    15    10    11   ar
    16    11    12   ar
    17    12    15    1
    18    15    16    1
    19    15    17    1
    20    15    18    1
    21    12    13   ar
    22    13    14   ar
    23     6     7    1
    24     7     8    1
    25    25    26   ar
    26    26    27   ar
    27    27    28   ar
    28    28    29    1
    29    29    30   ar
    30    30    31   ar
    31    31    32   ar
    32    32    33   ar
    33    33    34   ar
    34    28    24   ar
    35    34    29   ar
    36     8     1    1
    37     7     3    1
    38    14     9   ar
@<TRIPOS>MOLECULE
*****
 34 38 0 0 0
SMALL
GASTEIGER

@<TRIPOS>ATOM
      1 N         142.7508  141.2604  161.3571 N.3     1  UNL1       -0.2712
      2 C         143.8465  140.2395  161.4421 C.3     1  UNL1        0.0738
      3 C         143.9811  139.8224  162.8766 C.3     1  UNL1        0.0372
      4 C         144.7414  138.9336  163.8157 C.3     1  UNL1        0.0245
      5 C         144.1989  139.1474  165.1978 C.3     1  UNL1        0.0909
      6 N         143.1032  140.1683  165.1128 N.pl3   1  UNL1       -0.3077
      7 C         142.9686  140.5855  163.6782 C.3     1  UNL1        0.0901
      8 C         142.2082  141.4742  162.7391 C.3     1  UNL1        0.0921
      9 C         142.2856  140.6819  166.2607 C.ar    1  UNL1        0.0478
     10 C         141.9548  139.7767  167.4101 C.ar    1  UNL1        0.0145
     11 C         141.1373  140.2903  168.5581 C.ar    1  UNL1        0.0051
     12 C         140.6505  141.7091  168.5567 C.ar    1  UNL1        0.0715
     13 C         140.9813  142.6144  167.4073 C.ar    1  UNL1        0.0051
     14 C         141.7989  142.1008  166.2593 C.ar    1  UNL1        0.0145
     15 C         139.8330  142.2227  169.7047 C.3     1  UNL1        0.4186
     16 F         139.0155  142.7363  170.8527 F       1  UNL1       -0.1659
     17 F         139.0115  140.9679  169.6810 F       1  UNL1       -0.1659
     18 F         140.6545  143.4775  169.7283 F       1  UNL1       -0.1659
     19 C         142.2803  141.9470  160.1092 C.3     1  UNL1        0.0731
     20 C         141.1396  141.3731  159.3221 C.3     1  UNL1        0.0294
     21 C         141.3167  140.0841  158.5758 C.3     1  UNL1        0.0666
     22 S         140.6144  138.8440  159.0436 S.3     1  UNL1       -0.0756
     23 C         138.5582  139.9389  161.3290 C.3     1  UNL1        0.1340
     24 N         139.6887  138.9776  161.5477 N.ar    1  UNL1       -0.2872
     25 C         140.6338  138.4743  160.4972 C.ar    1  UNL1        0.1933
     26 N         141.6018  137.5364  161.1555 N.ar    1  UNL1       -0.1221
     27 N         141.2550  137.4601  162.6129 N.ar    1  UNL1       -0.1266
     28 C         140.0726  138.3507  162.8553 C.ar    1  UNL1        0.1864
     29 C         139.3934  138.5751  164.1738 C.ar    1  UNL1        0.1387
     30 C         138.8770  137.4067  164.9599 C.ar    1  UNL1        0.0257
     31 C         138.1978  137.6311  166.2784 C.ar    1  UNL1        0.0242
     32 C         138.0350  139.0241  166.8106 C.ar    1  UNL1        0.1222
     33 N         138.5514  140.1925  166.0245 N.ar    1  UNL1       -0.1463
     34 N         139.2306  139.9680  164.7060 N.ar    1  UNL1       -0.1448
@<TRIPOS>BOND
     1    23    24    1
     2    24    25   ar
     3    25    22    1
     4    22    21    1
     5    21    20    1
     6    20    19    1
     7    19     1    1
     8     1     2    1
     9     2     3    1
    10     3     4    1
    11     4     5    1
    12     5     6    1
    13     6     9    1
    14     9    10   ar
    15    10    11   ar
    16    11    12   ar
    17    12    15    1
    18    15    16    1
    19    15    17    1
    20    15    18    1
    21    12    13   ar
    22    13    14   ar
    23     6     7    1
    24     7     8    1
    25    25    26   ar
    26    26    27   ar
    27    27    28   ar
    28    28    29    1
    29    29    30   ar
    30    30    31   ar
    31    31    32   ar
    32    32    33   ar
    33    33    34   ar
    34    28    24   ar
    35    34    29   ar
    36     8     1    1
    37     7     3    1
    38    14     9   ar
@<TRIPOS>MOLECULE
*****
 34 38 0 0 0
SMALL
GASTEIGER

@<TRIPOS>ATOM
      1 N         138.8467  144.2342  162.7388 N.3     1  UNL1       -0.2712
      2 C         138.1122  143.1155  162.0613 C.3     1  UNL1        0.0738
      3 C         138.1555  141.9187  162.9645 C.3     1  UNL1        0.0372
      4 C         137.7284  140.4876  163.1040 C.3     1  UNL1        0.0245
      5 C         138.2256  139.9821  164.4259 C.3     1  UNL1        0.0909
      6 N         138.9601  141.1009  165.1034 N.pl3   1  UNL1       -0.3077
      7 C         138.9168  142.2977  164.2002 C.3     1  UNL1        0.0901
      8 C         139.3439  143.7289  164.0607 C.3     1  UNL1        0.0921
      9 C         139.6217  141.0346  166.4480 C.ar    1  UNL1        0.0478
     10 C         140.6770  142.0354  166.8148 C.ar    1  UNL1        0.0145
     11 C         141.3386  141.9690  168.1594 C.ar    1  UNL1        0.0051
     12 C         140.9449  140.9018  169.1371 C.ar    1  UNL1        0.0715
     13 C         139.8896  139.9008  168.7703 C.ar    1  UNL1        0.0051
     14 C         139.2279  139.9672  167.4257 C.ar    1  UNL1        0.0145
     15 C         141.6065  140.8354  170.4817 C.3     1  UNL1        0.4186
     16 F         142.2681  140.7690  171.8262 F       1  UNL1       -0.1659
     17 F         141.4412  142.3182  170.6362 F       1  UNL1       -0.1659
     18 F         141.7718  139.3525  170.3271 F       1  UNL1       -0.1659
     19 C         139.0485  145.6158  162.1906 C.3     1  UNL1        0.0731
     20 C         140.2319  145.9107  161.3173 C.3     1  UNL1        0.0294
     21 C         140.4930  145.0738  160.1002 C.3     1  UNL1        0.0666
     22 S         141.6747  144.1507  160.0642 S.3     1  UNL1       -0.0756
     23 C         140.6217  141.0648  160.1987 C.3     1  UNL1        0.1340
     24 N         141.4245  141.7691  161.2520 N.ar    1  UNL1       -0.2872
     25 C         141.9085  143.1875  161.1902 C.ar    1  UNL1        0.1933
     26 N         142.6674  143.4738  162.4520 N.ar    1  UNL1       -0.1221
     27 N         142.6524  142.2323  163.2937 N.ar    1  UNL1       -0.1266
     28 C         141.8842  141.1787  162.5520 C.ar    1  UNL1        0.1864
     29 C         141.6219  139.7803  163.0271 C.ar    1  UNL1        0.1387
     30 C         142.0424  139.3652  164.4058 C.ar    1  UNL1        0.0257
     31 C         141.7801  137.9668  164.8808 C.ar    1  UNL1        0.0242
     32 C         141.0972  136.9835  163.9769 C.ar    1  UNL1        0.1222
     33 N         140.6767  137.3985  162.5982 N.ar    1  UNL1       -0.1463
     34 N         140.9391  138.7970  162.1233 N.ar    1  UNL1       -0.1448
@<TRIPOS>BOND
     1    23    24    1
     2    24    25   ar
     3    25    22    1
     4    22    21    1
     5    21    20    1
     6    20    19    1
     7    19     1    1
     8     1     2    1
     9     2     3    1
    10     3     4    1
    11     4     5    1
    12     5     6    1
    13     6     9    1
    14     9    10   ar
    15    10    11   ar
    16    11    12   ar
    17    12    15    1
    18    15    16    1
    19    15    17    1
    20    15    18    1
    21    12    13   ar
    22    13    14   ar
    23     6     7    1
    24     7     8    1
    25    25    26   ar
    26    26    27   ar
    27    27    28   ar
    28    28    29    1
    29    29    30   ar
    30    30    31   ar
    31    31    32   ar
    32    32    33   ar
    33    33    34   ar
    34    28    24   ar
    35    34    29   ar
    36     8     1    1
    37     7     3    1
    38    14     9   ar
