@<TRIPOS>MOLECULE
*****
 44 49 0 0 0
SMALL
GASTEIGER

@<TRIPOS>ATOM
      1 C         138.5278  140.2023  159.9260 C.ar    1  UNL1        0.1499
      2 N         138.4166  139.1921  161.0292 N.ar    1  UNL1       -0.2222
      3 C         138.5326  139.9186  162.3364 C.ar    1  UNL1        0.1476
      4 N         138.7153  141.3778  162.0411 N.ar    1  UNL1       -0.2919
      5 C         138.7124  141.5532  160.5513 C.ar    1  UNL1        0.0894
      6 C         138.4757  139.2954  163.6996 C.ar    1  UNL1        0.0345
      7 C         138.8094  137.8436  163.8750 C.ar    1  UNL1        0.0030
      8 C         138.7525  137.2204  165.2383 C.ar    1  UNL1        0.0001
      9 C         138.3619  138.0491  166.4260 C.ar    1  UNL1        0.0000
     10 C         138.0282  139.5009  166.2506 C.ar    1  UNL1        0.0001
     11 C         138.0851  140.1241  164.8873 C.ar    1  UNL1        0.0030
     12 C         138.8733  142.4700  163.0570 C.ar    1  UNL1        0.0651
     13 C         140.2088  142.7131  163.6953 C.ar    1  UNL1        0.0176
     14 C         140.3668  143.8053  164.7112 C.ar    1  UNL1        0.0015
     15 C         139.1893  144.6543  165.0890 C.ar    1  UNL1        0.0001
     16 C         137.8538  144.4112  164.4507 C.ar    1  UNL1        0.0015
     17 C         137.6958  143.3191  163.4348 C.ar    1  UNL1        0.0176
     18 N         139.4156  138.9257  157.8445 N.am    1  UNL1       -0.2995
     19 C         138.4653  139.9125  158.4556 C.2     1  UNL1        0.2648
     20 O         137.4526  140.6094  157.5962 O.2     1  UNL1       -0.2684
     21 H         140.0803  138.4683  158.4086 H       1  UNL1        0.1498
     22 C         139.3531  138.6360  156.3741 C.3     1  UNL1        0.0912
     23 C         140.5810  138.1719  155.6483 C.3     1  UNL1        0.0386
     24 C         141.9211  138.7487  155.9967 C.3     1  UNL1        0.0739
     25 N         143.0993  139.2577  160.3098 N.pl3   1  UNL1       -0.3049
     26 C         143.0651  137.8884  159.6982 C.3     1  UNL1        0.1081
     27 C         142.6724  137.7188  158.2605 C.3     1  UNL1        0.0938
     28 N         142.3138  138.9183  157.4343 N.3     1  UNL1       -0.2697
     29 C         142.3480  140.2876  158.0459 C.3     1  UNL1        0.0938
     30 C         142.7407  140.4572  159.4837 C.3     1  UNL1        0.1081
     31 C         141.6710  137.7116  162.4474 C.3     1  UNL1        0.0332
     32 C         142.7779  138.6543  162.8163 C.ar    1  UNL1        0.0020
     33 C         143.1706  138.8240  164.2540 C.ar    1  UNL1        0.0549
     34 CL        142.4565  138.0509  165.3228 Cl      1  UNL1       -0.0825
     35 C         144.2775  139.7667  164.6228 C.ar    1  UNL1        0.0112
     36 C         144.9917  140.5397  163.5540 C.ar    1  UNL1        0.0021
     37 C         144.5989  140.3700  162.1164 C.ar    1  UNL1        0.0143
     38 C         143.4920  139.4273  161.7475 C.ar    1  UNL1        0.0447
     39 C         138.8669  142.8514  159.8161 C.3     1  UNL1        0.1746
     40 N         140.2345  143.3512  159.4557 N.ar    1  UNL1       -0.2239
     41 C         141.3002  143.7780  160.4211 C.ar    1  UNL1        0.1976
     42 N         142.5008  144.2024  159.6285 N.ar    1  UNL1       -0.2007
     43 C         142.1771  144.0380  158.1731 C.ar    1  UNL1        0.2210
     44 N         140.7765  143.5119  158.0663 N.ar    1  UNL1       -0.1448
@<TRIPOS>BOND
     1    31    32    1
     2    32    33   ar
     3    33    34    1
     4    33    35   ar
     5    35    36   ar
     6    36    37   ar
     7    37    38   ar
     8    38    25    1
     9    25    26    1
    10    26    27    1
    11    27    28    1
    12    28    24    1
    13    24    23    1
    14    23    22    1
    15    22    18    1
    16    18    19   am
    17    19    20    2
    18    19     1    1
    19     1     2   ar
    20     2     3   ar
    21     3     6    1
    22     6     7   ar
    23     7     8   ar
    24     8     9   ar
    25     9    10   ar
    26    10    11   ar
    27     3     4   ar
    28     4    12    1
    29    12    13   ar
    30    13    14   ar
    31    14    15   ar
    32    15    16   ar
    33    16    17   ar
    34     4     5   ar
    35     5    39    1
    36    39    40    1
    37    40    41   ar
    38    41    42   ar
    39    42    43   ar
    40    43    44   ar
    41    28    29    1
    42    29    30    1
    43    38    32   ar
    44    30    25    1
    45     5     1   ar
    46    44    40   ar
    47    11     6   ar
    48    17    12   ar
    49    18    21    1
@<TRIPOS>MOLECULE
*****
 44 49 0 0 0
SMALL
GASTEIGER

@<TRIPOS>ATOM
      1 C         139.1261  139.6088  160.0125 C.ar    1  UNL1        0.1499
      2 N         138.9028  138.7227  161.2021 N.ar    1  UNL1       -0.2222
      3 C         138.8286  139.5934  162.4213 C.ar    1  UNL1        0.1476
      4 N         139.0062  141.0176  161.9853 N.ar    1  UNL1       -0.2919
      5 C         139.1900  141.0272  160.4966 C.ar    1  UNL1        0.0894
      6 C         138.6145  139.1226  163.8292 C.ar    1  UNL1        0.0345
      7 C         138.8448  137.6829  164.1818 C.ar    1  UNL1        0.0030
      8 C         138.6307  137.2122  165.5899 C.ar    1  UNL1        0.0001
      9 C         138.1863  138.1811  166.6453 C.ar    1  UNL1        0.0000
     10 C         137.9560  139.6207  166.2926 C.ar    1  UNL1        0.0001
     11 C         138.1702  140.0915  164.8846 C.ar    1  UNL1        0.0030
     12 C         139.0008  142.2210  162.8807 C.ar    1  UNL1        0.0651
     13 C         140.2437  142.6062  163.6268 C.ar    1  UNL1        0.0176
     14 C         140.2384  143.8096  164.5222 C.ar    1  UNL1        0.0015
     15 C         138.9901  144.6278  164.6716 C.ar    1  UNL1        0.0001
     16 C         137.7471  144.2426  163.9254 C.ar    1  UNL1        0.0015
     17 C         137.7525  143.0392  163.0300 C.ar    1  UNL1        0.0176
     18 N         140.1911  138.0298  158.2454 N.am    1  UNL1       -0.2995
     19 C         139.2618  139.1561  158.5889 C.2     1  UNL1        0.2648
     20 O         138.4682  139.8296  157.5089 O.2     1  UNL1       -0.2684
     21 H         140.7120  137.5878  158.9543 H       1  UNL1        0.1498
     22 C         140.3267  137.5771  156.8218 C.3     1  UNL1        0.0912
     23 C         141.6637  137.1458  156.2961 C.3     1  UNL1        0.0386
     24 C         142.9176  137.7703  156.8325 C.3     1  UNL1        0.0739
     25 N         143.0360  139.3045  161.0612 N.pl3   1  UNL1       -0.3049
     26 C         142.9493  140.2690  159.9157 C.3     1  UNL1        0.1081
     27 C         142.9098  139.7576  158.5061 C.3     1  UNL1        0.0938
     28 N         142.9570  138.2817  158.2421 N.3     1  UNL1       -0.2697
     29 C         143.0437  137.3173  159.3877 C.3     1  UNL1        0.0938
     30 C         143.0832  137.8287  160.7973 C.3     1  UNL1        0.1081
     31 C         144.8090  141.6190  161.7681 C.3     1  UNL1        0.0332
     32 C         143.9619  140.9732  162.8243 C.ar    1  UNL1        0.0020
     33 C         144.0013  141.4846  164.2338 C.ar    1  UNL1        0.0549
     34 CL        144.8879  142.6419  164.5873 Cl      1  UNL1       -0.0825
     35 C         143.1543  140.8388  165.2900 C.ar    1  UNL1        0.0112
     36 C         142.2678  139.6816  164.9365 C.ar    1  UNL1        0.0021
     37 C         142.2284  139.1702  163.5270 C.ar    1  UNL1        0.0143
     38 C         143.0754  139.8160  162.4709 C.ar    1  UNL1        0.0447
     39 C         139.4008  142.2418  159.6421 C.3     1  UNL1        0.1746
     40 N         140.1578  143.4179  160.1838 N.ar    1  UNL1       -0.2239
     41 C         141.6353  143.4752  160.4366 C.ar    1  UNL1        0.1976
     42 N         141.9608  144.8360  160.9769 N.ar    1  UNL1       -0.2007
     43 C         140.6845  145.6199  161.0582 C.ar    1  UNL1        0.2210
     44 N         139.5702  144.7435  160.5681 N.ar    1  UNL1       -0.1448
@<TRIPOS>BOND
     1    31    32    1
     2    32    33   ar
     3    33    34    1
     4    33    35   ar
     5    35    36   ar
     6    36    37   ar
     7    37    38   ar
     8    38    25    1
     9    25    26    1
    10    26    27    1
    11    27    28    1
    12    28    24    1
    13    24    23    1
    14    23    22    1
    15    22    18    1
    16    18    19   am
    17    19    20    2
    18    19     1    1
    19     1     2   ar
    20     2     3   ar
    21     3     6    1
    22     6     7   ar
    23     7     8   ar
    24     8     9   ar
    25     9    10   ar
    26    10    11   ar
    27     3     4   ar
    28     4    12    1
    29    12    13   ar
    30    13    14   ar
    31    14    15   ar
    32    15    16   ar
    33    16    17   ar
    34     4     5   ar
    35     5    39    1
    36    39    40    1
    37    40    41   ar
    38    41    42   ar
    39    42    43   ar
    40    43    44   ar
    41    28    29    1
    42    29    30    1
    43    38    32   ar
    44    30    25    1
    45     5     1   ar
    46    44    40   ar
    47    11     6   ar
    48    17    12   ar
    49    18    21    1
@<TRIPOS>MOLECULE
*****
 44 49 0 0 0
SMALL
GASTEIGER

@<TRIPOS>ATOM
      1 C         140.7271  138.9683  160.2995 C.ar    1  UNL1        0.1499
      2 N         139.6137  138.9428  161.3042 N.ar    1  UNL1       -0.2222
      3 C         140.2253  138.8820  162.6725 C.ar    1  UNL1        0.1476
      4 N         141.7168  138.8699  162.5134 N.ar    1  UNL1       -0.2919
      5 C         142.0270  138.9232  161.0468 C.ar    1  UNL1        0.0894
      6 C         139.4769  138.8406  163.9718 C.ar    1  UNL1        0.0345
      7 C         139.1971  140.1120  164.7170 C.ar    1  UNL1        0.0030
      8 C         138.4487  140.0705  166.0163 C.ar    1  UNL1        0.0001
      9 C         137.9801  138.7577  166.5703 C.ar    1  UNL1        0.0000
     10 C         138.2599  137.4863  165.8251 C.ar    1  UNL1        0.0001
     11 C         139.0084  137.5278  164.5258 C.ar    1  UNL1        0.0030
     12 C         142.7217  138.8142  163.6256 C.ar    1  UNL1        0.0651
     13 C         144.0556  139.4813  163.4653 C.ar    1  UNL1        0.0176
     14 C         145.0605  139.4257  164.5775 C.ar    1  UNL1        0.0015
     15 C         144.7316  138.7029  165.8501 C.ar    1  UNL1        0.0001
     16 C         143.3977  138.0357  166.0104 C.ar    1  UNL1        0.0015
     17 C         142.3928  138.0914  164.8982 C.ar    1  UNL1        0.0176
     18 N         140.9108  140.2871  158.0685 N.am    1  UNL1       -0.2995
     19 C         140.5687  139.0282  158.8091 C.2     1  UNL1        0.2648
     20 O         140.0680  137.8295  158.0592 O.2     1  UNL1       -0.2684
     21 H         141.2394  141.0739  158.5607 H       1  UNL1        0.1498
     22 C         140.7523  140.3471  156.5781 C.3     1  UNL1        0.0912
     23 C         140.2323  141.5952  155.9288 C.3     1  UNL1        0.0386
     24 C         139.1120  142.3618  156.5670 C.3     1  UNL1        0.0739
     25 N         139.2084  143.2307  160.9813 N.pl3   1  UNL1       -0.3049
     26 C         138.3079  142.1562  160.4479 C.3     1  UNL1        0.1081
     27 C         138.2757  141.8665  158.9765 C.3     1  UNL1        0.0938
     28 N         139.1441  142.6514  158.0384 N.3     1  UNL1       -0.2697
     29 C         140.0446  143.7259  158.5718 C.3     1  UNL1        0.0938
     30 C         140.0768  144.0155  160.0432 C.3     1  UNL1        0.1081
     31 C         141.5817  142.4065  162.6209 C.3     1  UNL1        0.0332
     32 C         140.4272  143.1082  163.2725 C.ar    1  UNL1        0.0020
     33 C         140.4593  143.3978  164.7439 C.ar    1  UNL1        0.0549
     34 CL        141.6459  142.9857  165.5637 Cl      1  UNL1       -0.0825
     35 C         139.3047  144.0996  165.3955 C.ar    1  UNL1        0.0112
     36 C         138.1181  144.5117  164.5758 C.ar    1  UNL1        0.0021
     37 C         138.0860  144.2220  163.1044 C.ar    1  UNL1        0.0143
     38 C         139.2406  143.5203  162.4527 C.ar    1  UNL1        0.0447
     39 C         143.3965  138.9302  160.4350 C.3     1  UNL1        0.1746
     40 N         143.8358  140.0911  159.5928 N.ar    1  UNL1       -0.2239
     41 C         144.0694  141.4920  160.0751 C.ar    1  UNL1        0.1976
     42 N         144.4967  142.3215  158.9007 N.ar    1  UNL1       -0.2007
     43 C         144.5272  141.4332  157.6924 C.ar    1  UNL1        0.2210
     44 N         144.1188  140.0547  158.1201 N.ar    1  UNL1       -0.1448
@<TRIPOS>BOND
     1    31    32    1
     2    32    33   ar
     3    33    34    1
     4    33    35   ar
     5    35    36   ar
     6    36    37   ar
     7    37    38   ar
     8    38    25    1
     9    25    26    1
    10    26    27    1
    11    27    28    1
    12    28    24    1
    13    24    23    1
    14    23    22    1
    15    22    18    1
    16    18    19   am
    17    19    20    2
    18    19     1    1
    19     1     2   ar
    20     2     3   ar
    21     3     6    1
    22     6     7   ar
    23     7     8   ar
    24     8     9   ar
    25     9    10   ar
    26    10    11   ar
    27     3     4   ar
    28     4    12    1
    29    12    13   ar
    30    13    14   ar
    31    14    15   ar
    32    15    16   ar
    33    16    17   ar
    34     4     5   ar
    35     5    39    1
    36    39    40    1
    37    40    41   ar
    38    41    42   ar
    39    42    43   ar
    40    43    44   ar
    41    28    29    1
    42    29    30    1
    43    38    32   ar
    44    30    25    1
    45     5     1   ar
    46    44    40   ar
    47    11     6   ar
    48    17    12   ar
    49    18    21    1
@<TRIPOS>MOLECULE
*****
 44 49 0 0 0
SMALL
GASTEIGER

@<TRIPOS>ATOM
      1 C         139.5263  139.9374  160.8002 C.ar    1  UNL1        0.1499
      2 N         140.2024  139.2568  161.9533 N.ar    1  UNL1       -0.2222
      3 C         140.1582  140.1855  163.1304 C.ar    1  UNL1        0.1476
      4 N         139.4548  141.4401  162.7047 N.ar    1  UNL1       -0.2919
      5 C         139.0642  141.2868  161.2646 C.ar    1  UNL1        0.0894
      6 C         140.7190  139.9084  164.4936 C.ar    1  UNL1        0.0345
      7 C         142.1642  139.5384  164.6491 C.ar    1  UNL1        0.0030
      8 C         142.7249  139.2612  166.0125 C.ar    1  UNL1        0.0001
      9 C         141.8404  139.3541  167.2204 C.ar    1  UNL1        0.0000
     10 C         140.3951  139.7242  167.0649 C.ar    1  UNL1        0.0001
     11 C         139.8344  140.0013  165.7015 C.ar    1  UNL1        0.0030
     12 C         139.1886  142.6378  163.5677 C.ar    1  UNL1        0.0651
     13 C         137.8117  142.8791  164.1116 C.ar    1  UNL1        0.0176
     14 C         137.5455  144.0768  164.9746 C.ar    1  UNL1        0.0015
     15 C         138.6562  145.0331  165.2936 C.ar    1  UNL1        0.0001
     16 C         140.0331  144.7918  164.7497 C.ar    1  UNL1        0.0015
     17 C         140.2993  143.5941  163.8867 C.ar    1  UNL1        0.0176
     18 N         140.3134  138.3512  158.8989 N.am    1  UNL1       -0.2995
     19 C         139.3442  139.3685  159.4242 C.2     1  UNL1        0.2648
     20 O         138.1930  139.8169  158.5735 O.2     1  UNL1       -0.2684
     21 H         141.0690  138.0570  159.4572 H       1  UNL1        0.1498
     22 C         140.1313  137.7824  157.5230 C.3     1  UNL1        0.0912
     23 C         141.3283  137.4944  156.6660 C.3     1  UNL1        0.0386
     24 C         142.6883  137.3858  157.2893 C.3     1  UNL1        0.0739
     25 N         143.8208  140.0891  160.7039 N.pl3   1  UNL1       -0.3049
     26 C         143.4728  138.6540  160.9671 C.3     1  UNL1        0.1081
     27 C         143.0953  137.7529  159.8290 C.3     1  UNL1        0.0938
     28 N         143.0658  138.2869  158.4275 N.3     1  UNL1       -0.2697
     29 C         143.4138  139.7220  158.1643 C.3     1  UNL1        0.0938
     30 C         143.7914  140.6232  159.3025 C.3     1  UNL1        0.1081
     31 C         142.7336  142.8823  160.8301 C.3     1  UNL1        0.0332
     32 C         143.6547  142.3868  161.9052 C.ar    1  UNL1        0.0020
     33 C         144.0322  143.2878  163.0435 C.ar    1  UNL1        0.0549
     34 CL        143.4886  144.6845  163.1066 Cl      1  UNL1       -0.0825
     35 C         144.9534  142.7923  164.1186 C.ar    1  UNL1        0.0112
     36 C         145.4970  141.3957  164.0555 C.ar    1  UNL1        0.0021
     37 C         145.1195  140.4947  162.9173 C.ar    1  UNL1        0.0143
     38 C         144.1983  140.9902  161.8422 C.ar    1  UNL1        0.0447
     39 C         138.3389  142.3042  160.4347 C.3     1  UNL1        0.1746
     40 N         139.1113  143.3472  159.6827 N.ar    1  UNL1       -0.2239
     41 C         139.4998  143.2841  158.2353 C.ar    1  UNL1        0.1976
     42 N         140.2593  144.5345  157.9042 N.ar    1  UNL1       -0.2007
     43 C         140.3402  145.3704  159.1470 C.ar    1  UNL1        0.2210
     44 N         139.6307  144.6367  160.2462 N.ar    1  UNL1       -0.1448
@<TRIPOS>BOND
     1    31    32    1
     2    32    33   ar
     3    33    34    1
     4    33    35   ar
     5    35    36   ar
     6    36    37   ar
     7    37    38   ar
     8    38    25    1
     9    25    26    1
    10    26    27    1
    11    27    28    1
    12    28    24    1
    13    24    23    1
    14    23    22    1
    15    22    18    1
    16    18    19   am
    17    19    20    2
    18    19     1    1
    19     1     2   ar
    20     2     3   ar
    21     3     6    1
    22     6     7   ar
    23     7     8   ar
    24     8     9   ar
    25     9    10   ar
    26    10    11   ar
    27     3     4   ar
    28     4    12    1
    29    12    13   ar
    30    13    14   ar
    31    14    15   ar
    32    15    16   ar
    33    16    17   ar
    34     4     5   ar
    35     5    39    1
    36    39    40    1
    37    40    41   ar
    38    41    42   ar
    39    42    43   ar
    40    43    44   ar
    41    28    29    1
    42    29    30    1
    43    38    32   ar
    44    30    25    1
    45     5     1   ar
    46    44    40   ar
    47    11     6   ar
    48    17    12   ar
    49    18    21    1
@<TRIPOS>MOLECULE
*****
 44 49 0 0 0
SMALL
GASTEIGER

@<TRIPOS>ATOM
      1 C         139.1658  140.5540  159.4394 C.ar    1  UNL1        0.1499
      2 N         139.1754  139.4927  160.4994 N.ar    1  UNL1       -0.2222
      3 C         139.1426  140.1723  161.8362 C.ar    1  UNL1        0.1476
      4 N         139.1128  141.6537  161.6024 N.ar    1  UNL1       -0.2919
      5 C         139.1272  141.8897  160.1211 C.ar    1  UNL1        0.0894
      6 C         139.1402  139.4904  163.1722 C.ar    1  UNL1        0.0345
      7 C         138.1912  139.9414  164.2427 C.ar    1  UNL1        0.0030
      8 C         138.1887  139.2594  165.5787 C.ar    1  UNL1        0.0001
      9 C         139.1353  138.1264  165.8441 C.ar    1  UNL1        0.0000
     10 C         140.0843  137.6754  164.7736 C.ar    1  UNL1        0.0001
     11 C         140.0867  138.3574  163.4376 C.ar    1  UNL1        0.0030
     12 C         139.0753  142.7132  162.6636 C.ar    1  UNL1        0.0651
     13 C         137.7634  143.3048  163.0866 C.ar    1  UNL1        0.0176
     14 C         137.7259  144.3643  164.1477 C.ar    1  UNL1        0.0015
     15 C         139.0002  144.8322  164.7859 C.ar    1  UNL1        0.0001
     16 C         140.3121  144.2405  164.3629 C.ar    1  UNL1        0.0015
     17 C         140.3496  143.1810  163.3018 C.ar    1  UNL1        0.0176
     18 N         140.4360  140.6106  157.1737 N.am    1  UNL1       -0.2995
     19 C         139.1905  140.3207  157.9579 C.2     1  UNL1        0.2648
     20 O         137.9699  139.7975  157.2606 O.2     1  UNL1       -0.2684
     21 H         141.2371  140.9540  157.6314 H       1  UNL1        0.1498
     22 C         140.4607  140.3773  155.6921 C.3     1  UNL1        0.0912
     23 C         141.2392  139.2264  155.1270 C.3     1  UNL1        0.0386
     24 C         142.5832  138.8790  155.6952 C.3     1  UNL1        0.0739
     25 N         143.4808  139.7168  160.0245 N.pl3   1  UNL1       -0.3049
     26 C         142.6095  138.5545  159.6504 C.3     1  UNL1        0.1081
     27 C         142.3103  138.2752  158.2074 C.3     1  UNL1        0.0938
     28 N         142.8824  139.1583  157.1382 N.3     1  UNL1       -0.2697
     29 C         143.7537  140.3206  157.5123 C.3     1  UNL1        0.0938
     30 C         144.0529  140.5998  158.9554 C.3     1  UNL1        0.1081
     31 C         143.2882  142.5178  161.0816 C.3     1  UNL1        0.0332
     32 C         143.6837  141.3965  161.9962 C.ar    1  UNL1        0.0020
     33 C         143.9828  141.6756  163.4392 C.ar    1  UNL1        0.0549
     34 CL        143.8866  143.0762  163.9679 Cl      1  UNL1       -0.0825
     35 C         144.3782  140.5544  164.3538 C.ar    1  UNL1        0.0112
     36 C         144.4745  139.1539  163.8252 C.ar    1  UNL1        0.0021
     37 C         144.1753  138.8747  162.3821 C.ar    1  UNL1        0.0143
     38 C         143.7799  139.9960  161.4676 C.ar    1  UNL1        0.0447
     39 C         139.1064  143.2263  159.4410 C.3     1  UNL1        0.1746
     40 N         140.3897  143.8581  158.9893 N.ar    1  UNL1       -0.2239
     41 C         140.9052  145.2034  159.4067 C.ar    1  UNL1        0.1976
     42 N         142.2169  145.4320  158.7161 N.ar    1  UNL1       -0.2007
     43 C         142.5122  144.2279  157.8718 C.ar    1  UNL1        0.2210
     44 N         141.3830  143.2552  158.0406 N.ar    1  UNL1       -0.1448
@<TRIPOS>BOND
     1    31    32    1
     2    32    33   ar
     3    33    34    1
     4    33    35   ar
     5    35    36   ar
     6    36    37   ar
     7    37    38   ar
     8    38    25    1
     9    25    26    1
    10    26    27    1
    11    27    28    1
    12    28    24    1
    13    24    23    1
    14    23    22    1
    15    22    18    1
    16    18    19   am
    17    19    20    2
    18    19     1    1
    19     1     2   ar
    20     2     3   ar
    21     3     6    1
    22     6     7   ar
    23     7     8   ar
    24     8     9   ar
    25     9    10   ar
    26    10    11   ar
    27     3     4   ar
    28     4    12    1
    29    12    13   ar
    30    13    14   ar
    31    14    15   ar
    32    15    16   ar
    33    16    17   ar
    34     4     5   ar
    35     5    39    1
    36    39    40    1
    37    40    41   ar
    38    41    42   ar
    39    42    43   ar
    40    43    44   ar
    41    28    29    1
    42    29    30    1
    43    38    32   ar
    44    30    25    1
    45     5     1   ar
    46    44    40   ar
    47    11     6   ar
    48    17    12   ar
    49    18    21    1
@<TRIPOS>MOLECULE
*****
 44 49 0 0 0
SMALL
GASTEIGER

@<TRIPOS>ATOM
      1 C         142.9155  142.3507  160.5152 C.ar    1  UNL1        0.1499
      2 N         143.2474  141.3964  161.6239 N.ar    1  UNL1       -0.2222
      3 C         142.2404  141.5895  162.7187 C.ar    1  UNL1        0.1476
      4 N         141.2861  142.6631  162.2867 N.ar    1  UNL1       -0.2919
      5 C         141.7033  143.1337  160.9248 C.ar    1  UNL1        0.0894
      6 C         142.1954  140.8405  164.0175 C.ar    1  UNL1        0.0345
      7 C         143.4468  140.2289  164.5742 C.ar    1  UNL1        0.0030
      8 C         143.4018  139.4799  165.8730 C.ar    1  UNL1        0.0001
      9 C         142.1054  139.3425  166.6151 C.ar    1  UNL1        0.0000
     10 C         140.8541  139.9541  166.0584 C.ar    1  UNL1        0.0001
     11 C         140.8991  140.7031  164.7595 C.ar    1  UNL1        0.0030
     12 C         140.1194  143.1763  163.0775 C.ar    1  UNL1        0.0651
     13 C         138.7431  142.6392  162.8181 C.ar    1  UNL1        0.0176
     14 C         137.5764  143.1523  163.6090 C.ar    1  UNL1        0.0015
     15 C         137.7860  144.2025  164.6593 C.ar    1  UNL1        0.0001
     16 C         139.1623  144.7396  164.9188 C.ar    1  UNL1        0.0015
     17 C         140.3290  144.2264  164.1279 C.ar    1  UNL1        0.0176
     18 N         142.9167  142.5382  157.9239 N.am    1  UNL1       -0.2995
     19 C         143.6643  142.4966  159.2237 C.2     1  UNL1        0.2648
     20 O         145.1607  142.6007  159.2319 O.2     1  UNL1       -0.2684
     21 H         141.9346  142.4699  157.9185 H       1  UNL1        0.1498
     22 C         143.6655  142.6841  156.6324 C.3     1  UNL1        0.0912
     23 C         143.9542  141.4755  155.7922 C.3     1  UNL1        0.0386
     24 C         142.9742  140.3407  155.7487 C.3     1  UNL1        0.0739
     25 N         140.9815  138.9425  159.5335 N.pl3   1  UNL1       -0.3049
     26 C         142.4256  138.6226  159.2839 C.3     1  UNL1        0.1081
     27 C         143.0898  139.0887  158.0223 C.3     1  UNL1        0.0938
     28 N         142.3099  139.8747  157.0103 N.3     1  UNL1       -0.2697
     29 C         140.8659  140.1946  157.2599 C.3     1  UNL1        0.0938
     30 C         140.2017  139.7285  158.5216 C.3     1  UNL1        0.1081
     31 C         142.6333  137.8178  161.7711 C.3     1  UNL1        0.0332
     32 C         141.1432  137.9141  161.9139 C.ar    1  UNL1        0.0020
     33 C         140.4790  137.4480  163.1755 C.ar    1  UNL1        0.0549
     34 CL        141.3049  136.8857  164.2943 Cl      1  UNL1       -0.0825
     35 C         138.9889  137.5443  163.3183 C.ar    1  UNL1        0.0112
     36 C         138.1630  138.1066  162.1995 C.ar    1  UNL1        0.0021
     37 C         138.8272  138.5727  160.9379 C.ar    1  UNL1        0.0143
     38 C         140.3173  138.4764  160.7951 C.ar    1  UNL1        0.0447
     39 C         141.0272  144.1998  160.1149 C.3     1  UNL1        0.1746
     40 N         140.0973  143.8192  159.0011 N.ar    1  UNL1       -0.2239
     41 C         138.8651  142.9738  159.1311 C.ar    1  UNL1        0.1976
     42 N         138.2427  142.8494  157.7720 N.ar    1  UNL1       -0.2007
     43 C         139.0903  143.6179  156.8020 C.ar    1  UNL1        0.2210
     44 N         140.2365  144.2173  157.5616 N.ar    1  UNL1       -0.1448
@<TRIPOS>BOND
     1    31    32    1
     2    32    33   ar
     3    33    34    1
     4    33    35   ar
     5    35    36   ar
     6    36    37   ar
     7    37    38   ar
     8    38    25    1
     9    25    26    1
    10    26    27    1
    11    27    28    1
    12    28    24    1
    13    24    23    1
    14    23    22    1
    15    22    18    1
    16    18    19   am
    17    19    20    2
    18    19     1    1
    19     1     2   ar
    20     2     3   ar
    21     3     6    1
    22     6     7   ar
    23     7     8   ar
    24     8     9   ar
    25     9    10   ar
    26    10    11   ar
    27     3     4   ar
    28     4    12    1
    29    12    13   ar
    30    13    14   ar
    31    14    15   ar
    32    15    16   ar
    33    16    17   ar
    34     4     5   ar
    35     5    39    1
    36    39    40    1
    37    40    41   ar
    38    41    42   ar
    39    42    43   ar
    40    43    44   ar
    41    28    29    1
    42    29    30    1
    43    38    32   ar
    44    30    25    1
    45     5     1   ar
    46    44    40   ar
    47    11     6   ar
    48    17    12   ar
    49    18    21    1
@<TRIPOS>MOLECULE
*****
 44 49 0 0 0
SMALL
GASTEIGER

@<TRIPOS>ATOM
      1 C         142.3018  143.9970  159.4568 C.ar    1  UNL1        0.1499
      2 N         141.3256  144.2877  160.5580 N.ar    1  UNL1       -0.2222
      3 C         141.7407  143.5002  161.7653 C.ar    1  UNL1        0.1476
      4 N         142.9734  142.7228  161.4103 N.ar    1  UNL1       -0.2919
      5 C         143.3202  143.0298  159.9836 C.ar    1  UNL1        0.0894
      6 C         141.0452  143.4916  163.0942 C.ar    1  UNL1        0.0345
      7 C         140.2606  144.6905  163.5379 C.ar    1  UNL1        0.0030
      8 C         139.5651  144.6819  164.8669 C.ar    1  UNL1        0.0001
      9 C         139.6543  143.4743  165.7522 C.ar    1  UNL1        0.0000
     10 C         140.4390  142.2753  165.3086 C.ar    1  UNL1        0.0001
     11 C         141.1344  142.2840  163.9796 C.ar    1  UNL1        0.0030
     12 C         143.7271  141.8003  162.3219 C.ar    1  UNL1        0.0651
     13 C         144.7833  142.3471  163.2360 C.ar    1  UNL1        0.0176
     14 C         145.5369  141.4246  164.1476 C.ar    1  UNL1        0.0015
     15 C         145.2344  139.9554  164.1452 C.ar    1  UNL1        0.0001
     16 C         144.1782  139.4087  163.2311 C.ar    1  UNL1        0.0015
     17 C         143.4245  140.3312  162.3195 C.ar    1  UNL1        0.0176
     18 N         142.3209  143.6630  156.8803 N.am    1  UNL1       -0.2995
     19 C         142.2658  144.5724  158.0720 C.2     1  UNL1        0.2648
     20 O         142.1749  146.0571  157.8789 O.2     1  UNL1       -0.2684
     21 H         142.3806  142.6885  157.0071 H       1  UNL1        0.1498
     22 C         142.2850  144.2384  155.4955 C.3     1  UNL1        0.0912
     23 C         141.1482  143.9068  154.5749 C.3     1  UNL1        0.0386
     24 C         140.3105  142.6881  154.8261 C.3     1  UNL1        0.0739
     25 N         139.0392  141.6567  159.0177 N.pl3   1  UNL1       -0.3049
     26 C         138.3730  142.7855  158.2883 C.3     1  UNL1        0.1081
     27 C         138.7968  143.1293  156.8911 C.3     1  UNL1        0.0938
     28 N         139.8867  142.3443  156.2233 N.3     1  UNL1       -0.2697
     29 C         140.5529  141.2155  156.9528 C.3     1  UNL1        0.0938
     30 C         140.1291  140.8717  158.3500 C.3     1  UNL1        0.1081
     31 C         139.2365  138.8260  159.9915 C.3     1  UNL1        0.0332
     32 C         138.7140  139.8976  160.9019 C.ar    1  UNL1        0.0020
     33 C         138.2902  139.5539  162.2991 C.ar    1  UNL1        0.0549
     34 CL        138.3889  138.1385  162.7860 Cl      1  UNL1       -0.0825
     35 C         137.7677  140.6255  163.2094 C.ar    1  UNL1        0.0112
     36 C         137.6690  142.0408  162.7225 C.ar    1  UNL1        0.0021
     37 C         138.0928  142.3845  161.3253 C.ar    1  UNL1        0.0143
     38 C         138.6153  141.3129  160.4150 C.ar    1  UNL1        0.0447
     39 C         144.4815  142.4683  159.2180 C.3     1  UNL1        0.1746
     40 N         144.2696  141.3355  158.2578 N.ar    1  UNL1       -0.2239
     41 C         143.7480  139.9723  158.6036 C.ar    1  UNL1        0.1976
     42 N         143.6983  139.1615  157.3426 N.ar    1  UNL1       -0.2007
     43 C         144.1891  140.0236  156.2175 C.ar    1  UNL1        0.2210
     44 N         144.5423  141.3672  156.7832 N.ar    1  UNL1       -0.1448
@<TRIPOS>BOND
     1    31    32    1
     2    32    33   ar
     3    33    34    1
     4    33    35   ar
     5    35    36   ar
     6    36    37   ar
     7    37    38   ar
     8    38    25    1
     9    25    26    1
    10    26    27    1
    11    27    28    1
    12    28    24    1
    13    24    23    1
    14    23    22    1
    15    22    18    1
    16    18    19   am
    17    19    20    2
    18    19     1    1
    19     1     2   ar
    20     2     3   ar
    21     3     6    1
    22     6     7   ar
    23     7     8   ar
    24     8     9   ar
    25     9    10   ar
    26    10    11   ar
    27     3     4   ar
    28     4    12    1
    29    12    13   ar
    30    13    14   ar
    31    14    15   ar
    32    15    16   ar
    33    16    17   ar
    34     4     5   ar
    35     5    39    1
    36    39    40    1
    37    40    41   ar
    38    41    42   ar
    39    42    43   ar
    40    43    44   ar
    41    28    29    1
    42    29    30    1
    43    38    32   ar
    44    30    25    1
    45     5     1   ar
    46    44    40   ar
    47    11     6   ar
    48    17    12   ar
    49    18    21    1
@<TRIPOS>MOLECULE
*****
 44 49 0 0 0
SMALL
GASTEIGER

@<TRIPOS>ATOM
      1 C         142.5606  142.6568  159.8376 C.ar    1  UNL1        0.1499
      2 N         143.4542  142.5908  161.0405 N.ar    1  UNL1       -0.2222
      3 C         142.6061  142.7988  162.2601 C.ar    1  UNL1        0.1476
      4 N         141.1882  142.9935  161.8109 N.ar    1  UNL1       -0.2919
      5 C         141.1600  142.9057  160.3137 C.ar    1  UNL1        0.0894
      6 C         143.0906  142.8103  163.6796 C.ar    1  UNL1        0.0345
      7 C         142.6112  141.7664  164.6442 C.ar    1  UNL1        0.0030
      8 C         143.0958  141.7779  166.0637 C.ar    1  UNL1        0.0001
      9 C         144.0599  142.8332  166.5186 C.ar    1  UNL1        0.0000
     10 C         144.5393  143.8771  165.5539 C.ar    1  UNL1        0.0001
     11 C         144.0547  143.8656  164.1344 C.ar    1  UNL1        0.0030
     12 C         140.0060  143.2337  162.7024 C.ar    1  UNL1        0.0651
     13 C         139.8702  144.5366  163.4331 C.ar    1  UNL1        0.0176
     14 C         138.6880  144.7768  164.3246 C.ar    1  UNL1        0.0015
     15 C         137.6416  143.7141  164.4853 C.ar    1  UNL1        0.0001
     16 C         137.7774  142.4112  163.7546 C.ar    1  UNL1        0.0015
     17 C         138.9596  142.1710  162.8631 C.ar    1  UNL1        0.0176
     18 N         143.4538  141.1657  157.9066 N.am    1  UNL1       -0.2995
     19 C         142.9917  142.5013  158.4093 C.2     1  UNL1        0.2648
     20 O         142.9607  143.6813  157.4838 O.2     1  UNL1       -0.2684
     21 H         143.4741  140.3912  158.5140 H       1  UNL1        0.1498
     22 C         143.8849  141.0102  156.4783 C.3     1  UNL1        0.0912
     23 C         143.5036  139.7800  155.7095 C.3     1  UNL1        0.0386
     24 C         142.2651  139.0186  156.0788 C.3     1  UNL1        0.0739
     25 N         141.2250  138.3783  160.4099 N.pl3   1  UNL1       -0.3049
     26 C         140.4079  139.3176  159.5733 C.3     1  UNL1        0.1081
     27 C         140.7545  139.5310  158.1296 C.3     1  UNL1        0.0938
     28 N         141.9184  138.8051  157.5225 N.3     1  UNL1       -0.2697
     29 C         142.7356  137.8658  158.3591 C.3     1  UNL1        0.0938
     30 C         142.3889  137.6524  159.8028 C.3     1  UNL1        0.1081
     31 C         143.3465  138.6335  162.5157 C.3     1  UNL1        0.0332
     32 C         141.9390  138.2925  162.9065 C.ar    1  UNL1        0.0020
     33 C         141.5923  138.0791  164.3501 C.ar    1  UNL1        0.0549
     34 CL        142.6531  138.2067  165.4031 Cl      1  UNL1       -0.0825
     35 C         140.1848  137.7380  164.7409 C.ar    1  UNL1        0.0112
     36 C         139.1241  137.6104  163.6881 C.ar    1  UNL1        0.0021
     37 C         139.4708  137.8238  162.2444 C.ar    1  UNL1        0.0143
     38 C         140.8783  138.1649  161.8536 C.ar    1  UNL1        0.0447
     39 C         139.9448  143.0427  159.4452 C.3     1  UNL1        0.1746
     40 N         139.8806  144.1270  158.4107 N.ar    1  UNL1       -0.2239
     41 C         139.3771  143.9766  157.0058 C.ar    1  UNL1        0.1976
     42 N         139.4940  145.3088  156.3264 N.ar    1  UNL1       -0.2007
     43 C         140.0697  146.2825  157.3114 C.ar    1  UNL1        0.2210
     44 N         140.3087  145.5522  158.5996 N.ar    1  UNL1       -0.1448
@<TRIPOS>BOND
     1    31    32    1
     2    32    33   ar
     3    33    34    1
     4    33    35   ar
     5    35    36   ar
     6    36    37   ar
     7    37    38   ar
     8    38    25    1
     9    25    26    1
    10    26    27    1
    11    27    28    1
    12    28    24    1
    13    24    23    1
    14    23    22    1
    15    22    18    1
    16    18    19   am
    17    19    20    2
    18    19     1    1
    19     1     2   ar
    20     2     3   ar
    21     3     6    1
    22     6     7   ar
    23     7     8   ar
    24     8     9   ar
    25     9    10   ar
    26    10    11   ar
    27     3     4   ar
    28     4    12    1
    29    12    13   ar
    30    13    14   ar
    31    14    15   ar
    32    15    16   ar
    33    16    17   ar
    34     4     5   ar
    35     5    39    1
    36    39    40    1
    37    40    41   ar
    38    41    42   ar
    39    42    43   ar
    40    43    44   ar
    41    28    29    1
    42    29    30    1
    43    38    32   ar
    44    30    25    1
    45     5     1   ar
    46    44    40   ar
    47    11     6   ar
    48    17    12   ar
    49    18    21    1
@<TRIPOS>MOLECULE
*****
 44 49 0 0 0
SMALL
GASTEIGER

@<TRIPOS>ATOM
      1 C         143.0120  140.4552  159.3233 C.ar    1  UNL1        0.1499
      2 N         143.4771  141.3968  160.3943 N.ar    1  UNL1       -0.2222
      3 C         142.8401  140.9799  161.6867 C.ar    1  UNL1        0.1476
      4 N         141.9813  139.7806  161.4145 N.ar    1  UNL1       -0.2919
      5 C         142.0875  139.4563  159.9537 C.ar    1  UNL1        0.0894
      6 C         143.0287  141.6453  163.0177 C.ar    1  UNL1        0.0345
      7 C         141.8542  142.2536  163.7252 C.ar    1  UNL1        0.0030
      8 C         142.0429  142.9191  165.0562 C.ar    1  UNL1        0.0001
      9 C         143.4060  142.9762  165.6797 C.ar    1  UNL1        0.0000
     10 C         144.5805  142.3678  164.9721 C.ar    1  UNL1        0.0001
     11 C         144.3918  141.7024  163.6411 C.ar    1  UNL1        0.0030
     12 C         141.1603  139.0361  162.4253 C.ar    1  UNL1        0.0651
     13 C         139.6981  139.3366  162.5719 C.ar    1  UNL1        0.0176
     14 C         138.8771  138.5922  163.5828 C.ar    1  UNL1        0.0015
     15 C         139.5185  137.5473  164.4471 C.ar    1  UNL1        0.0001
     16 C         140.9807  137.2469  164.3006 C.ar    1  UNL1        0.0015
     17 C         141.8017  137.9913  163.2897 C.ar    1  UNL1        0.0176
     18 N         142.4161  140.9733  156.8480 N.am    1  UNL1       -0.2995
     19 C         143.4028  140.5040  157.8759 C.2     1  UNL1        0.2648
     20 O         144.7801  140.0835  157.4563 O.2     1  UNL1       -0.2684
     21 H         141.5121  141.2493  157.1234 H       1  UNL1        0.1498
     22 C         142.8069  141.0221  155.4007 C.3     1  UNL1        0.0912
     23 C         143.0436  142.3436  154.7318 C.3     1  UNL1        0.0386
     24 C         142.1596  143.5134  155.0484 C.3     1  UNL1        0.0739
     25 N         140.5487  144.0537  159.2153 N.pl3   1  UNL1       -0.3049
     26 C         142.0061  144.2776  158.9397 C.3     1  UNL1        0.1081
     27 C         142.5431  144.0975  157.5508 C.3     1  UNL1        0.0938
     28 N         141.6227  143.6935  156.4373 N.3     1  UNL1       -0.2697
     29 C         140.1653  143.4696  156.7129 C.3     1  UNL1        0.0938
     30 C         139.6283  143.6497  158.1019 C.3     1  UNL1        0.1081
     31 C         138.6747  142.0181  160.3747 C.3     1  UNL1        0.0332
     32 C         139.0748  143.2160  161.1840 C.ar    1  UNL1        0.0020
     33 C         138.5379  143.3962  162.5729 C.ar    1  UNL1        0.0549
     34 CL        137.6008  142.3783  163.1527 Cl      1  UNL1       -0.0825
     35 C         138.9379  144.5941  163.3822 C.ar    1  UNL1        0.0112
     36 C         139.8749  145.6119  162.8025 C.ar    1  UNL1        0.0021
     37 C         140.4118  145.4318  161.4135 C.ar    1  UNL1        0.0143
     38 C         140.0117  144.2338  160.6043 C.ar    1  UNL1        0.0447
     39 C         141.3915  138.3308  159.2476 C.3     1  UNL1        0.1746
     40 N         140.4244  138.6246  158.1393 N.ar    1  UNL1       -0.2239
     41 C         139.8600  137.6253  157.1735 C.ar    1  UNL1        0.1976
     42 N         138.9386  138.3525  156.2395 N.ar    1  UNL1       -0.2007
     43 C         138.9336  139.8012  156.6281 C.ar    1  UNL1        0.2210
     44 N         139.8519  139.9694  157.8022 N.ar    1  UNL1       -0.1448
@<TRIPOS>BOND
     1    31    32    1
     2    32    33   ar
     3    33    34    1
     4    33    35   ar
     5    35    36   ar
     6    36    37   ar
     7    37    38   ar
     8    38    25    1
     9    25    26    1
    10    26    27    1
    11    27    28    1
    12    28    24    1
    13    24    23    1
    14    23    22    1
    15    22    18    1
    16    18    19   am
    17    19    20    2
    18    19     1    1
    19     1     2   ar
    20     2     3   ar
    21     3     6    1
    22     6     7   ar
    23     7     8   ar
    24     8     9   ar
    25     9    10   ar
    26    10    11   ar
    27     3     4   ar
    28     4    12    1
    29    12    13   ar
    30    13    14   ar
    31    14    15   ar
    32    15    16   ar
    33    16    17   ar
    34     4     5   ar
    35     5    39    1
    36    39    40    1
    37    40    41   ar
    38    41    42   ar
    39    42    43   ar
    40    43    44   ar
    41    28    29    1
    42    29    30    1
    43    38    32   ar
    44    30    25    1
    45     5     1   ar
    46    44    40   ar
    47    11     6   ar
    48    17    12   ar
    49    18    21    1
