@<TRIPOS>MOLECULE
*****
 46 52 0 0 0
SMALL
GASTEIGER

@<TRIPOS>ATOM
      1 N         139.7829  140.4891  157.2170 N.am    1  UNL1       -0.2222
      2 C         139.8768  141.7031  156.3408 C.2     1  UNL1        0.3219
      3 O         140.3701  141.7323  154.9246 O.2     1  UNL1       -0.2512
      4 N         139.3909  142.8828  157.1297 N.am    1  UNL1       -0.1907
      5 C         138.9966  142.3979  158.4933 C.2     1  UNL1        0.2529
      6 O         138.4552  143.2438  159.6074 O.2     1  UNL1       -0.2724
      7 C         139.2388  140.9185  158.5473 C.3     1  UNL1        0.1391
      8 C         139.5313  139.4504  158.4528 C.3     1  UNL1        0.0449
      9 C         139.2746  138.5573  159.6303 C.3     1  UNL1        0.0746
     10 N         138.7254  139.1324  160.9022 N.3     1  UNL1       -0.2676
     11 C         138.4330  140.6005  160.9966 C.3     1  UNL1        0.0746
     12 C         138.6897  141.4936  159.8192 C.3     1  UNL1        0.0449
     13 C         141.9603  137.2231  156.6326 C.ar    1  UNL1        0.2293
     14 C         141.5775  138.6210  157.0190 C.ar    1  UNL1        0.0924
     15 C         140.1657  139.0912  156.8306 C.ar    1  UNL1        0.1453
     16 N         139.1366  138.1635  156.2558 N.ar    1  UNL1       -0.2084
     17 C         139.5193  136.7657  155.8694 C.ar    1  UNL1        0.2027
     18 N         140.9313  136.2954  156.0578 N.ar    1  UNL1       -0.1892
     19 C         144.0290  135.9109  155.7676 C.3     1  UNL1        0.2542
     20 O         143.3722  136.7529  156.8210 O.3     1  UNL1       -0.4560
     21 C         139.3130  144.2987  156.6408 C.ar    1  UNL1        0.0622
     22 C         138.3842  144.6544  155.5179 C.ar    1  UNL1        0.0154
     23 C         138.3063  146.0703  155.0290 C.ar    1  UNL1        0.0013
     24 C         139.1571  147.1306  155.6630 C.ar    1  UNL1        0.0001
     25 C         140.0859  146.7749  156.7859 C.ar    1  UNL1        0.0013
     26 C         140.1637  145.3590  157.2748 C.ar    1  UNL1        0.0154
     27 C         139.0791  148.5466  155.1740 C.ar    1  UNL1        0.0000
     28 C         138.4519  149.6035  156.0340 C.ar    1  UNL1        0.0000
     29 C         138.3740  151.0194  155.5450 C.ar    1  UNL1        0.0015
     30 C         138.9233  151.3783  154.1962 C.ar    1  UNL1        0.0171
     31 C         139.5505  150.3214  153.3362 C.ar    1  UNL1        0.0015
     32 C         139.6285  148.9056  153.8251 C.ar    1  UNL1        0.0000
     33 C         138.8454  152.7943  153.7072 C.ar    1  UNL1        0.0754
     34 C         139.9677  153.7894  153.7052 C.ar    1  UNL1        0.0409
     35 C         139.4474  155.0738  153.1312 C.ar    1  UNL1        0.1214
     36 N         138.0034  154.8726  152.7785 N.ar    1  UNL1       -0.1711
     37 N         137.6313  153.4637  153.1345 N.ar    1  UNL1       -0.2757
     38 H         136.7458  153.0509  153.0135 H       1  UNL1        0.1889
     39 C         138.4688  138.2392  162.0797 C.3     1  UNL1        0.1183
     40 C         138.9820  138.6208  163.4365 C.ar    1  UNL1        0.0712
     41 N         138.1362  139.4572  164.3503 N.ar    1  UNL1       -0.2471
     42 C         138.6495  139.8388  165.7072 C.ar    1  UNL1        0.0985
     43 C         140.0085  139.3841  166.1501 C.ar    1  UNL1        0.0203
     44 C         140.8543  138.5477  165.2363 C.ar    1  UNL1       -0.0015
     45 C         140.3411  138.1661  163.8795 C.ar    1  UNL1       -0.0069
     46 C         141.1868  137.3297  162.9656 C.3     1  UNL1        0.0323
@<TRIPOS>BOND
     1    19    20    1
     2    20    13    1
     3    13    14   ar
     4    14    15   ar
     5    15     1    1
     6     1     2   am
     7     2     3    2
     8     2     4   am
     9     4    21    1
    10    21    22   ar
    11    22    23   ar
    12    23    24   ar
    13    24    27    1
    14    27    28   ar
    15    28    29   ar
    16    29    30   ar
    17    30    33    1
    18    33    34   ar
    19    34    35   ar
    20    35    36   ar
    21    36    37   ar
    22    30    31   ar
    23    31    32   ar
    24    24    25   ar
    25    25    26   ar
    26     4     5   am
    27     5     6    2
    28     5     7    1
    29     7     8    1
    30     8     9    1
    31     9    10    1
    32    10    39    1
    33    39    40    1
    34    40    41   ar
    35    41    42   ar
    36    42    43   ar
    37    43    44   ar
    38    44    45   ar
    39    45    46    1
    40    10    11    1
    41    11    12    1
    42    15    16   ar
    43    16    17   ar
    44    17    18   ar
    45    18    13   ar
    46     7     1    1
    47    45    40   ar
    48    26    21   ar
    49    12     7    1
    50    32    27   ar
    51    37    33   ar
    52    37    38    1
@<TRIPOS>MOLECULE
*****
 46 52 0 0 0
SMALL
GASTEIGER

@<TRIPOS>ATOM
      1 N         139.8042  140.5255  157.1059 N.am    1  UNL1       -0.2222
      2 C         139.9034  141.7425  156.2345 C.2     1  UNL1        0.3219
      3 O         140.4119  141.7777  154.8237 O.2     1  UNL1       -0.2512
      4 N         139.4049  142.9181  157.0216 N.am    1  UNL1       -0.1907
      5 C         138.9975  142.4277  158.3794 C.2     1  UNL1        0.2529
      6 O         138.4411  143.2682  159.4902 O.2     1  UNL1       -0.2724
      7 C         139.2443  140.9489  158.4315 C.3     1  UNL1        0.1391
      8 C         139.5429  139.4821  158.3358 C.3     1  UNL1        0.0449
      9 C         139.2766  138.5845  159.5077 C.3     1  UNL1        0.0746
     10 N         138.7117  139.1538  160.7753 N.3     1  UNL1       -0.2676
     11 C         138.4131  140.6206  160.8710 C.3     1  UNL1        0.0746
     12 C         138.6794  141.5182  159.6991 C.3     1  UNL1        0.0449
     13 C         142.0026  137.2735  156.5219 C.ar    1  UNL1        0.2293
     14 C         141.6108  138.6689  156.9083 C.ar    1  UNL1        0.0924
     15 C         140.1960  139.1301  156.7194 C.ar    1  UNL1        0.1453
     16 N         139.1731  138.1960  156.1440 N.ar    1  UNL1       -0.2084
     17 C         139.5648  136.8006  155.7576 C.ar    1  UNL1        0.2027
     18 N         140.9797  136.3393  155.9465 N.ar    1  UNL1       -0.1892
     19 C         144.1609  136.1865  155.5681 C.3     1  UNL1        0.2542
     20 O         143.4173  136.8121  156.7107 O.3     1  UNL1       -0.4560
     21 C         139.3273  144.3352  156.5362 C.ar    1  UNL1        0.0622
     22 C         138.2940  144.7247  155.5211 C.ar    1  UNL1        0.0154
     23 C         138.2164  146.1419  155.0357 C.ar    1  UNL1        0.0013
     24 C         139.1722  147.1695  155.5654 C.ar    1  UNL1        0.0001
     25 C         140.2055  146.7800  156.5806 C.ar    1  UNL1        0.0013
     26 C         140.2830  145.3628  157.0660 C.ar    1  UNL1        0.0154
     27 C         139.0946  148.5867  155.0799 C.ar    1  UNL1        0.0000
     28 C         139.6358  148.9471  153.7282 C.ar    1  UNL1        0.0000
     29 C         139.5582  150.3643  153.2428 C.ar    1  UNL1        0.0015
     30 C         138.9394  151.4210  154.1092 C.ar    1  UNL1        0.0171
     31 C         138.3982  151.0605  155.4609 C.ar    1  UNL1        0.0015
     32 C         138.4758  149.6434  155.9463 C.ar    1  UNL1        0.0000
     33 C         138.8618  152.8381  153.6238 C.ar    1  UNL1        0.0754
     34 C         139.9540  153.8623  153.7146 C.ar    1  UNL1        0.0409
     35 C         139.4457  155.1370  153.1093 C.ar    1  UNL1        0.1214
     36 N         138.0392  154.9009  152.6442 N.ar    1  UNL1       -0.1711
     37 N         137.6784  153.4800  152.9622 N.ar    1  UNL1       -0.2757
     38 H         136.8162  153.0451  152.7704 H       1  UNL1        0.1889
     39 C         138.4454  138.2561  161.9472 C.3     1  UNL1        0.1183
     40 C         139.4517  138.1498  163.0545 C.ar    1  UNL1        0.0712
     41 N         140.6096  137.2047  162.9275 N.ar    1  UNL1       -0.2471
     42 C         141.6159  137.0985  164.0348 C.ar    1  UNL1        0.0985
     43 C         141.4643  137.9373  165.2690 C.ar    1  UNL1        0.0203
     44 C         140.3065  138.8824  165.3960 C.ar    1  UNL1       -0.0015
     45 C         139.3002  138.9887  164.2888 C.ar    1  UNL1       -0.0069
     46 C         138.1423  139.9338  164.4158 C.3     1  UNL1        0.0323
@<TRIPOS>BOND
     1    19    20    1
     2    20    13    1
     3    13    14   ar
     4    14    15   ar
     5    15     1    1
     6     1     2   am
     7     2     3    2
     8     2     4   am
     9     4    21    1
    10    21    22   ar
    11    22    23   ar
    12    23    24   ar
    13    24    27    1
    14    27    28   ar
    15    28    29   ar
    16    29    30   ar
    17    30    33    1
    18    33    34   ar
    19    34    35   ar
    20    35    36   ar
    21    36    37   ar
    22    30    31   ar
    23    31    32   ar
    24    24    25   ar
    25    25    26   ar
    26     4     5   am
    27     5     6    2
    28     5     7    1
    29     7     8    1
    30     8     9    1
    31     9    10    1
    32    10    39    1
    33    39    40    1
    34    40    41   ar
    35    41    42   ar
    36    42    43   ar
    37    43    44   ar
    38    44    45   ar
    39    45    46    1
    40    10    11    1
    41    11    12    1
    42    15    16   ar
    43    16    17   ar
    44    17    18   ar
    45    18    13   ar
    46     7     1    1
    47    45    40   ar
    48    26    21   ar
    49    12     7    1
    50    32    27   ar
    51    37    33   ar
    52    37    38    1
@<TRIPOS>MOLECULE
*****
 46 52 0 0 0
SMALL
GASTEIGER

@<TRIPOS>ATOM
      1 N         140.0605  141.6908  156.4733 N.am    1  UNL1       -0.2222
      2 C         140.3312  140.3986  155.7611 C.2     1  UNL1        0.3219
      3 O         139.8646  140.0374  154.3820 O.2     1  UNL1       -0.2512
      4 N         141.1505  139.5311  156.6701 N.am    1  UNL1       -0.1907
      5 C         141.3861  140.2871  157.9441 C.2     1  UNL1        0.2529
      6 O         142.1595  139.7949  159.1313 O.2     1  UNL1       -0.2724
      7 C         140.7125  141.6219  157.8225 C.3     1  UNL1        0.1391
      8 C         139.9937  142.9115  157.5573 C.3     1  UNL1        0.0449
      9 C         139.9753  143.9882  158.6015 C.3     1  UNL1        0.0746
     10 N         140.6756  143.7753  159.9108 N.3     1  UNL1       -0.2676
     11 C         141.3943  142.4857  160.1759 C.3     1  UNL1        0.0746
     12 C         141.4127  141.4090  159.1318 C.3     1  UNL1        0.0449
     13 C         139.2036  145.1688  154.7649 C.ar    1  UNL1        0.2293
     14 C         139.9885  144.0111  155.3067 C.ar    1  UNL1        0.0924
     15 C         139.2756  142.8485  155.9315 C.ar    1  UNL1        0.1453
     16 N         137.7779  142.8437  156.0143 N.ar    1  UNL1       -0.2084
     17 C         136.9930  144.0014  155.4725 C.ar    1  UNL1        0.2027
     18 N         137.7059  145.1640  154.8478 N.ar    1  UNL1       -0.1892
     19 C         139.7727  147.7035  154.7290 C.3     1  UNL1        0.2542
     20 O         139.9164  146.3314  154.1402 O.3     1  UNL1       -0.4560
     21 C         141.6469  138.1502  156.3597 C.ar    1  UNL1        0.0622
     22 C         140.6747  137.0686  155.9924 C.ar    1  UNL1        0.0154
     23 C         141.1712  135.6876  155.6820 C.ar    1  UNL1        0.0013
     24 C         142.6399  135.3882  155.7388 C.ar    1  UNL1        0.0001
     25 C         143.6122  136.4698  156.1061 C.ar    1  UNL1        0.0013
     26 C         143.1156  137.8508  156.4165 C.ar    1  UNL1        0.0154
     27 C         143.1364  134.0072  155.4284 C.ar    1  UNL1        0.0000
     28 C         144.1303  133.3457  156.3364 C.ar    1  UNL1        0.0000
     29 C         144.6268  131.9647  156.0260 C.ar    1  UNL1        0.0015
     30 C         144.1292  131.2453  154.8074 C.ar    1  UNL1        0.0171
     31 C         143.1353  131.9067  153.8993 C.ar    1  UNL1        0.0015
     32 C         142.6389  133.2876  154.2098 C.ar    1  UNL1        0.0000
     33 C         144.6257  129.8643  154.4970 C.ar    1  UNL1        0.0754
     34 C         144.5818  128.6832  155.4206 C.ar    1  UNL1        0.0409
     35 C         145.1822  127.5109  154.7028 C.ar    1  UNL1        0.1214
     36 N         145.5973  127.9674  153.3356 N.ar    1  UNL1       -0.1711
     37 N         145.2534  129.4219  153.2083 N.ar    1  UNL1       -0.2757
     38 H         145.4118  129.9870  152.4179 H       1  UNL1        0.1889
     39 C         140.6572  144.8521  160.9550 C.3     1  UNL1        0.1183
     40 C         139.8425  144.6739  162.2018 C.ar    1  UNL1        0.0712
     41 N         138.3890  144.3164  162.1033 N.ar    1  UNL1       -0.2471
     42 C         137.5743  144.1382  163.3501 C.ar    1  UNL1        0.0985
     43 C         138.2131  144.3175  164.6954 C.ar    1  UNL1        0.0203
     44 C         139.6665  144.6750  164.7939 C.ar    1  UNL1       -0.0015
     45 C         140.4812  144.8532  163.5471 C.ar    1  UNL1       -0.0069
     46 C         141.9346  145.2107  163.6456 C.3     1  UNL1        0.0323
@<TRIPOS>BOND
     1    19    20    1
     2    20    13    1
     3    13    14   ar
     4    14    15   ar
     5    15     1    1
     6     1     2   am
     7     2     3    2
     8     2     4   am
     9     4    21    1
    10    21    22   ar
    11    22    23   ar
    12    23    24   ar
    13    24    27    1
    14    27    28   ar
    15    28    29   ar
    16    29    30   ar
    17    30    33    1
    18    33    34   ar
    19    34    35   ar
    20    35    36   ar
    21    36    37   ar
    22    30    31   ar
    23    31    32   ar
    24    24    25   ar
    25    25    26   ar
    26     4     5   am
    27     5     6    2
    28     5     7    1
    29     7     8    1
    30     8     9    1
    31     9    10    1
    32    10    39    1
    33    39    40    1
    34    40    41   ar
    35    41    42   ar
    36    42    43   ar
    37    43    44   ar
    38    44    45   ar
    39    45    46    1
    40    10    11    1
    41    11    12    1
    42    15    16   ar
    43    16    17   ar
    44    17    18   ar
    45    18    13   ar
    46     7     1    1
    47    45    40   ar
    48    26    21   ar
    49    12     7    1
    50    32    27   ar
    51    37    33   ar
    52    37    38    1
@<TRIPOS>MOLECULE
*****
 46 52 0 0 0
SMALL
GASTEIGER

@<TRIPOS>ATOM
      1 N         140.0744  141.0616  157.1904 N.am    1  UNL1       -0.2222
      2 C         140.7140  139.9805  156.3704 C.2     1  UNL1        0.3219
      3 O         141.1774  140.1090  154.9496 O.2     1  UNL1       -0.2512
      4 N         140.8088  138.7485  157.2208 N.am    1  UNL1       -0.1907
      5 C         140.2279  139.0680  158.5663 C.2     1  UNL1        0.2529
      6 O         140.1197  138.1239  159.7268 O.2     1  UNL1       -0.2724
      7 C         139.7739  140.4977  158.5475 C.3     1  UNL1        0.1391
      8 C         139.3710  141.9328  158.3803 C.3     1  UNL1        0.0449
      9 C         138.7293  142.6691  159.5188 C.3     1  UNL1        0.0746
     10 N         138.4906  141.9703  160.8244 N.3     1  UNL1       -0.2676
     11 C         138.8935  140.5351  160.9916 C.3     1  UNL1        0.0746
     12 C         139.5352  139.7988  159.8532 C.3     1  UNL1        0.0449
     13 C         138.2055  144.1705  155.5806 C.ar    1  UNL1        0.2293
     14 C         138.4940  142.7712  156.0375 C.ar    1  UNL1        0.0924
     15 C         139.7859  142.4609  156.7335 C.ar    1  UNL1        0.1453
     16 N         140.7895  143.5498  156.9726 N.ar    1  UNL1       -0.2084
     17 C         140.5011  144.9491  156.5158 C.ar    1  UNL1        0.2027
     18 N         139.2090  145.2595  155.8197 N.ar    1  UNL1       -0.1892
     19 C         136.4877  143.6695  153.6971 C.3     1  UNL1        0.2542
     20 O         136.9136  144.4809  154.8846 O.3     1  UNL1       -0.4560
     21 C         141.3837  137.4286  156.7996 C.ar    1  UNL1        0.0622
     22 C         142.6438  136.9220  157.4362 C.ar    1  UNL1        0.0154
     23 C         143.2187  135.6021  157.0150 C.ar    1  UNL1        0.0013
     24 C         142.5334  134.7888  155.9572 C.ar    1  UNL1        0.0001
     25 C         141.2732  135.2955  155.3205 C.ar    1  UNL1        0.0013
     26 C         140.6984  136.6154  155.7418 C.ar    1  UNL1        0.0154
     27 C         143.1083  133.4689  155.5360 C.ar    1  UNL1        0.0000
     28 C         142.6437  132.8194  154.2662 C.ar    1  UNL1        0.0000
     29 C         143.2185  131.4995  153.8450 C.ar    1  UNL1        0.0015
     30 C         144.2580  130.8292  154.6937 C.ar    1  UNL1        0.0171
     31 C         144.7226  131.4787  155.9634 C.ar    1  UNL1        0.0015
     32 C         144.1478  132.7985  156.3846 C.ar    1  UNL1        0.0000
     33 C         144.8329  129.5093  154.2725 C.ar    1  UNL1        0.0754
     34 C         144.8659  128.2579  155.0989 C.ar    1  UNL1        0.0409
     35 C         145.5291  127.1843  154.2881 C.ar    1  UNL1        0.1214
     36 N         145.9060  127.7720  152.9605 N.ar    1  UNL1       -0.1711
     37 N         145.4757  129.2090  152.9508 N.ar    1  UNL1       -0.2757
     38 H         145.5943  129.8436  152.2075 H       1  UNL1        0.1889
     39 C         137.8489  142.7066  161.9629 C.3     1  UNL1        0.1183
     40 C         138.6009  142.9075  163.2450 C.ar    1  UNL1        0.0712
     41 N         138.6430  141.8125  164.2693 N.ar    1  UNL1       -0.2471
     42 C         139.3951  142.0134  165.5515 C.ar    1  UNL1        0.0985
     43 C         140.1051  143.3093  165.8095 C.ar    1  UNL1        0.0203
     44 C         140.0630  144.4043  164.7852 C.ar    1  UNL1       -0.0015
     45 C         139.3109  144.2035  163.5030 C.ar    1  UNL1       -0.0069
     46 C         139.2688  145.2985  162.4788 C.3     1  UNL1        0.0323
@<TRIPOS>BOND
     1    19    20    1
     2    20    13    1
     3    13    14   ar
     4    14    15   ar
     5    15     1    1
     6     1     2   am
     7     2     3    2
     8     2     4   am
     9     4    21    1
    10    21    22   ar
    11    22    23   ar
    12    23    24   ar
    13    24    27    1
    14    27    28   ar
    15    28    29   ar
    16    29    30   ar
    17    30    33    1
    18    33    34   ar
    19    34    35   ar
    20    35    36   ar
    21    36    37   ar
    22    30    31   ar
    23    31    32   ar
    24    24    25   ar
    25    25    26   ar
    26     4     5   am
    27     5     6    2
    28     5     7    1
    29     7     8    1
    30     8     9    1
    31     9    10    1
    32    10    39    1
    33    39    40    1
    34    40    41   ar
    35    41    42   ar
    36    42    43   ar
    37    43    44   ar
    38    44    45   ar
    39    45    46    1
    40    10    11    1
    41    11    12    1
    42    15    16   ar
    43    16    17   ar
    44    17    18   ar
    45    18    13   ar
    46     7     1    1
    47    45    40   ar
    48    26    21   ar
    49    12     7    1
    50    32    27   ar
    51    37    33   ar
    52    37    38    1
@<TRIPOS>MOLECULE
*****
 46 52 0 0 0
SMALL
GASTEIGER

@<TRIPOS>ATOM
      1 N         140.0102  140.5051  158.1739 N.am    1  UNL1       -0.2222
      2 C         139.8641  141.9967  158.2374 C.2     1  UNL1        0.3219
      3 O         139.7754  142.8214  159.4872 O.2     1  UNL1       -0.2512
      4 N         139.8222  142.5186  156.8317 N.am    1  UNL1       -0.1907
      5 C         139.9425  141.3496  155.8995 C.2     1  UNL1        0.2529
      6 O         139.9459  141.4137  154.4009 O.2     1  UNL1       -0.2724
      7 C         140.0586  140.1052  156.7290 C.3     1  UNL1        0.1391
      8 C         140.1649  138.9539  157.6846 C.3     1  UNL1        0.0449
      9 C         140.3049  137.5552  157.1611 C.3     1  UNL1        0.0746
     10 N         140.3386  137.3078  155.6820 N.3     1  UNL1       -0.2676
     11 C         140.2324  138.4591  154.7264 C.3     1  UNL1        0.0746
     12 C         140.0924  139.8578  155.2499 C.3     1  UNL1        0.0449
     13 C         141.5127  138.2873  161.1019 C.ar    1  UNL1        0.2293
     14 C         141.4297  139.2158  159.9269 C.ar    1  UNL1        0.0924
     15 C         140.0933  139.5765  159.3490 C.ar    1  UNL1        0.1453
     16 N         138.8399  139.0086  159.9462 N.ar    1  UNL1       -0.2084
     17 C         138.9229  138.0800  161.1212 C.ar    1  UNL1        0.2027
     18 N         140.2594  137.7193  161.6992 N.ar    1  UNL1       -0.1892
     19 C         144.1065  138.4133  161.0226 C.3     1  UNL1        0.2542
     20 O         142.8491  137.9265  161.6799 O.3     1  UNL1       -0.4560
     21 C         139.6844  143.9568  156.4290 C.ar    1  UNL1        0.0622
     22 C         140.7398  144.9491  156.8181 C.ar    1  UNL1        0.0154
     23 C         140.6020  146.3874  156.4154 C.ar    1  UNL1        0.0013
     24 C         139.4086  146.8335  155.6236 C.ar    1  UNL1        0.0001
     25 C         138.3531  145.8412  155.2345 C.ar    1  UNL1        0.0013
     26 C         138.4911  144.4029  155.6372 C.ar    1  UNL1        0.0154
     27 C         139.2708  148.2719  155.2209 C.ar    1  UNL1        0.0000
     28 C         138.5794  149.2428  156.1316 C.ar    1  UNL1        0.0000
     29 C         138.4415  150.6811  155.7289 C.ar    1  UNL1        0.0015
     30 C         138.9951  151.1485  154.4154 C.ar    1  UNL1        0.0171
     31 C         139.6864  150.1776  153.5047 C.ar    1  UNL1        0.0015
     32 C         139.8243  148.7393  153.9073 C.ar    1  UNL1        0.0000
     33 C         138.8572  152.5868  154.0126 C.ar    1  UNL1        0.0754
     34 C         139.7988  153.3489  153.1281 C.ar    1  UNL1        0.0409
     35 C         139.2771  154.7487  152.9925 C.ar    1  UNL1        0.1214
     36 N         138.0129  154.8518  153.7933 N.ar    1  UNL1       -0.1711
     37 N         137.7534  153.5156  154.4238 N.ar    1  UNL1       -0.2757
     38 H         136.9922  153.2882  155.0054 H       1  UNL1        0.1889
     39 C         140.4786  135.9091  155.1585 C.3     1  UNL1        0.1183
     40 C         141.6646  135.0776  155.5483 C.ar    1  UNL1        0.0712
     41 N         142.5081  135.4781  156.7222 N.ar    1  UNL1       -0.2471
     42 C         143.6942  134.6465  157.1120 C.ar    1  UNL1        0.0985
     43 C         144.0367  133.4145  156.3279 C.ar    1  UNL1        0.0203
     44 C         143.1932  133.0141  155.1540 C.ar    1  UNL1       -0.0015
     45 C         142.0072  133.8455  154.7642 C.ar    1  UNL1       -0.0069
     46 C         141.1637  133.4451  153.5902 C.3     1  UNL1        0.0323
@<TRIPOS>BOND
     1    19    20    1
     2    20    13    1
     3    13    14   ar
     4    14    15   ar
     5    15     1    1
     6     1     2   am
     7     2     3    2
     8     2     4   am
     9     4    21    1
    10    21    22   ar
    11    22    23   ar
    12    23    24   ar
    13    24    27    1
    14    27    28   ar
    15    28    29   ar
    16    29    30   ar
    17    30    33    1
    18    33    34   ar
    19    34    35   ar
    20    35    36   ar
    21    36    37   ar
    22    30    31   ar
    23    31    32   ar
    24    24    25   ar
    25    25    26   ar
    26     4     5   am
    27     5     6    2
    28     5     7    1
    29     7     8    1
    30     8     9    1
    31     9    10    1
    32    10    39    1
    33    39    40    1
    34    40    41   ar
    35    41    42   ar
    36    42    43   ar
    37    43    44   ar
    38    44    45   ar
    39    45    46    1
    40    10    11    1
    41    11    12    1
    42    15    16   ar
    43    16    17   ar
    44    17    18   ar
    45    18    13   ar
    46     7     1    1
    47    45    40   ar
    48    26    21   ar
    49    12     7    1
    50    32    27   ar
    51    37    33   ar
    52    37    38    1
@<TRIPOS>MOLECULE
*****
 46 52 0 0 0
SMALL
GASTEIGER

@<TRIPOS>ATOM
      1 N         142.1608  137.0566  156.3025 N.am    1  UNL1       -0.2222
      2 C         142.0215  138.0303  157.4350 C.2     1  UNL1        0.3219
      3 O         141.4799  139.4257  157.3365 O.2     1  UNL1       -0.2512
      4 N         142.5189  137.3637  158.6833 N.am    1  UNL1       -0.1907
      5 C         142.9655  135.9780  158.3223 C.2     1  UNL1        0.2529
      6 O         143.5337  134.9606  159.2668 O.2     1  UNL1       -0.2724
      7 C         142.7442  135.7882  156.8508 C.3     1  UNL1        0.1391
      8 C         142.4675  135.7453  155.3772 C.3     1  UNL1        0.0449
      9 C         142.7756  134.5049  154.5921 C.3     1  UNL1        0.0746
     10 N         143.3603  133.3074  155.2806 N.3     1  UNL1       -0.2676
     11 C         143.6370  133.3502  156.7542 C.3     1  UNL1        0.0746
     12 C         143.3290  134.5906  157.5393 C.3     1  UNL1        0.0449
     13 C         140.0199  137.2364  152.9657 C.ar    1  UNL1        0.2293
     14 C         140.3977  136.9857  154.3955 C.ar    1  UNL1        0.0924
     15 C         141.7829  137.3073  154.8727 C.ar    1  UNL1        0.1453
     16 N         142.7903  137.8797  153.9200 N.ar    1  UNL1       -0.2084
     17 C         142.4126  138.1304  152.4902 C.ar    1  UNL1        0.2027
     18 N         141.0273  137.8088  152.0130 N.ar    1  UNL1       -0.1892
     19 C         137.4440  137.4545  153.2239 C.3     1  UNL1        0.2542
     20 O         138.6347  136.9148  152.4885 O.3     1  UNL1       -0.4560
     21 C         142.5620  137.9753  160.0522 C.ar    1  UNL1        0.0622
     22 C         143.8788  138.1825  160.7399 C.ar    1  UNL1        0.0154
     23 C         143.9219  138.7941  162.1089 C.ar    1  UNL1        0.0013
     24 C         142.6482  139.1986  162.7901 C.ar    1  UNL1        0.0001
     25 C         141.3313  138.9914  162.1024 C.ar    1  UNL1        0.0013
     26 C         141.2883  138.3797  160.7334 C.ar    1  UNL1        0.0154
     27 C         142.6913  139.8103  164.1591 C.ar    1  UNL1        0.0000
     28 C         142.8321  141.2957  164.3128 C.ar    1  UNL1        0.0000
     29 C         142.8752  141.9074  165.6817 C.ar    1  UNL1        0.0015
     30 C         142.7776  141.0334  166.8970 C.ar    1  UNL1        0.0171
     31 C         142.6368  139.5480  166.7433 C.ar    1  UNL1        0.0015
     32 C         142.5937  138.9364  165.3744 C.ar    1  UNL1        0.0000
     33 C         142.8207  141.6451  168.2659 C.ar    1  UNL1        0.0754
     34 C         141.8815  141.3440  169.3961 C.ar    1  UNL1        0.0409
     35 C         142.2909  142.1781  170.5737 C.ar    1  UNL1        0.1214
     36 N         143.4831  142.9947  170.1714 N.ar    1  UNL1       -0.1711
     37 N         143.8106  142.6653  168.7450 N.ar    1  UNL1       -0.2757
     38 H         144.5460  143.0510  168.2162 H       1  UNL1        0.1889
     39 C         143.6684  132.0670  154.4953 C.3     1  UNL1        0.1183
     40 C         143.5662  130.7208  155.1490 C.ar    1  UNL1        0.0712
     41 N         144.8008  130.0398  155.6607 N.ar    1  UNL1       -0.2471
     42 C         144.6986  128.6936  156.3144 C.ar    1  UNL1        0.0985
     43 C         143.3617  128.0284  156.4564 C.ar    1  UNL1        0.0203
     44 C         142.1270  128.7094  155.9447 C.ar    1  UNL1       -0.0015
     45 C         142.2292  130.0556  155.2911 C.ar    1  UNL1       -0.0069
     46 C         140.9945  130.7366  154.7794 C.3     1  UNL1        0.0323
@<TRIPOS>BOND
     1    19    20    1
     2    20    13    1
     3    13    14   ar
     4    14    15   ar
     5    15     1    1
     6     1     2   am
     7     2     3    2
     8     2     4   am
     9     4    21    1
    10    21    22   ar
    11    22    23   ar
    12    23    24   ar
    13    24    27    1
    14    27    28   ar
    15    28    29   ar
    16    29    30   ar
    17    30    33    1
    18    33    34   ar
    19    34    35   ar
    20    35    36   ar
    21    36    37   ar
    22    30    31   ar
    23    31    32   ar
    24    24    25   ar
    25    25    26   ar
    26     4     5   am
    27     5     6    2
    28     5     7    1
    29     7     8    1
    30     8     9    1
    31     9    10    1
    32    10    39    1
    33    39    40    1
    34    40    41   ar
    35    41    42   ar
    36    42    43   ar
    37    43    44   ar
    38    44    45   ar
    39    45    46    1
    40    10    11    1
    41    11    12    1
    42    15    16   ar
    43    16    17   ar
    44    17    18   ar
    45    18    13   ar
    46     7     1    1
    47    45    40   ar
    48    26    21   ar
    49    12     7    1
    50    32    27   ar
    51    37    33   ar
    52    37    38    1
@<TRIPOS>MOLECULE
*****
 46 52 0 0 0
SMALL
GASTEIGER

@<TRIPOS>ATOM
      1 N         139.4462  138.5215  156.4650 N.am    1  UNL1       -0.2222
      2 C         139.2669  139.2766  157.7487 C.2     1  UNL1        0.3219
      3 O         138.1620  140.2435  158.0559 O.2     1  UNL1       -0.2512
      4 N         140.3865  138.8950  158.6712 N.am    1  UNL1       -0.1907
      5 C         141.2577  137.9041  157.9577 C.2     1  UNL1        0.2529
      6 O         142.4931  137.2576  158.5105 O.2     1  UNL1       -0.2724
      7 C         140.6766  137.6732  156.5942 C.3     1  UNL1        0.1391
      8 C         139.9832  137.5447  155.2703 C.3     1  UNL1        0.0449
      9 C         140.5355  136.6268  154.2204 C.3     1  UNL1        0.0746
     10 N         141.7812  135.8374  154.4944 N.3     1  UNL1       -0.2676
     11 C         142.4746  135.9659  155.8182 C.3     1  UNL1        0.0746
     12 C         141.9223  136.8838  156.8681 C.3     1  UNL1        0.0449
     13 C         137.8463  139.7786  153.0578 C.ar    1  UNL1        0.2293
     14 C         138.7404  139.6994  154.2595 C.ar    1  UNL1        0.0924
     15 C         138.5521  138.6007  155.2632 C.ar    1  UNL1        0.1453
     16 N         137.4697  137.5813  155.0652 N.ar    1  UNL1       -0.2084
     17 C         136.5756  137.6604  153.8635 C.ar    1  UNL1        0.2027
     18 N         136.7639  138.7592  152.8597 N.ar    1  UNL1       -0.1892
     19 C         138.1403  142.3016  152.5122 C.3     1  UNL1        0.2542
     20 O         138.0344  140.8773  152.0540 O.3     1  UNL1       -0.4560
     21 C         140.5978  139.4133  160.0628 C.ar    1  UNL1        0.0622
     22 C         140.4694  138.4871  161.2356 C.ar    1  UNL1        0.0154
     23 C         140.6807  139.0055  162.6273 C.ar    1  UNL1        0.0013
     24 C         141.0203  140.4500  162.8461 C.ar    1  UNL1        0.0001
     25 C         141.1487  141.3763  161.6732 C.ar    1  UNL1        0.0013
     26 C         140.9374  140.8579  160.2816 C.ar    1  UNL1        0.0154
     27 C         141.2316  140.9684  164.2378 C.ar    1  UNL1        0.0000
     28 C         140.0619  141.1340  165.1620 C.ar    1  UNL1        0.0000
     29 C         140.2731  141.6524  166.5537 C.ar    1  UNL1        0.0015
     30 C         141.6542  142.0051  167.0210 C.ar    1  UNL1        0.0171
     31 C         142.8239  141.8394  166.0967 C.ar    1  UNL1        0.0015
     32 C         142.6127  141.3211  164.7051 C.ar    1  UNL1        0.0000
     33 C         141.8655  142.5234  168.4126 C.ar    1  UNL1        0.0754
     34 C         143.1203  142.3875  169.2231 C.ar    1  UNL1        0.0409
     35 C         142.8894  143.0488  170.5495 C.ar    1  UNL1        0.1214
     36 N         141.4918  143.5934  170.5589 N.ar    1  UNL1       -0.1711
     37 N         140.8589  143.2687  169.2382 N.ar    1  UNL1       -0.2757
     38 H         139.9437  143.5035  168.9618 H       1  UNL1        0.1889
     39 C         142.3335  134.9194  153.4444 C.3     1  UNL1        0.1183
     40 C         141.7802  133.5334  153.2936 C.ar    1  UNL1        0.0712
     41 N         140.6627  133.2729  152.3275 N.ar    1  UNL1       -0.2471
     42 C         140.1094  131.8868  152.1768 C.ar    1  UNL1        0.0985
     43 C         140.6736  130.7613  152.9921 C.ar    1  UNL1        0.0203
     44 C         141.7911  131.0218  153.9582 C.ar    1  UNL1       -0.0015
     45 C         142.3444  132.4078  154.1089 C.ar    1  UNL1       -0.0069
     46 C         143.4619  132.6683  155.0750 C.3     1  UNL1        0.0323
@<TRIPOS>BOND
     1    19    20    1
     2    20    13    1
     3    13    14   ar
     4    14    15   ar
     5    15     1    1
     6     1     2   am
     7     2     3    2
     8     2     4   am
     9     4    21    1
    10    21    22   ar
    11    22    23   ar
    12    23    24   ar
    13    24    27    1
    14    27    28   ar
    15    28    29   ar
    16    29    30   ar
    17    30    33    1
    18    33    34   ar
    19    34    35   ar
    20    35    36   ar
    21    36    37   ar
    22    30    31   ar
    23    31    32   ar
    24    24    25   ar
    25    25    26   ar
    26     4     5   am
    27     5     6    2
    28     5     7    1
    29     7     8    1
    30     8     9    1
    31     9    10    1
    32    10    39    1
    33    39    40    1
    34    40    41   ar
    35    41    42   ar
    36    42    43   ar
    37    43    44   ar
    38    44    45   ar
    39    45    46    1
    40    10    11    1
    41    11    12    1
    42    15    16   ar
    43    16    17   ar
    44    17    18   ar
    45    18    13   ar
    46     7     1    1
    47    45    40   ar
    48    26    21   ar
    49    12     7    1
    50    32    27   ar
    51    37    33   ar
    52    37    38    1
@<TRIPOS>MOLECULE
*****
 46 52 0 0 0
SMALL
GASTEIGER

@<TRIPOS>ATOM
      1 N         141.0244  142.5608  160.1740 N.am    1  UNL1       -0.2222
      2 C         140.1819  142.4778  161.4124 C.2     1  UNL1        0.3219
      3 O         139.1063  143.4433  161.8133 O.2     1  UNL1       -0.2512
      4 N         140.6041  141.2598  162.1794 N.am    1  UNL1       -0.1907
      5 C         141.7074  140.5900  161.4150 C.2     1  UNL1        0.2529
      6 O         142.4250  139.3363  161.8191 O.2     1  UNL1       -0.2724
      7 C         141.9672  141.3941  160.1756 C.3     1  UNL1        0.1391
      8 C         142.1130  142.2947  158.9850 C.3     1  UNL1        0.0449
      9 C         143.1359  141.9863  157.9322 C.3     1  UNL1        0.0746
     10 N         144.0130  140.7772  158.0700 N.3     1  UNL1       -0.2676
     11 C         143.8671  139.8766  159.2606 C.3     1  UNL1        0.0746
     12 C         142.8442  140.1851  160.3134 C.3     1  UNL1        0.0449
     13 C         139.8820  144.5424  156.9308 C.ar    1  UNL1        0.2293
     14 C         139.9674  143.4793  157.9856 C.ar    1  UNL1        0.0924
     15 C         140.9390  143.6239  159.1192 C.ar    1  UNL1        0.1453
     16 N         141.8252  144.8316  159.1980 N.ar    1  UNL1       -0.2084
     17 C         141.7399  145.8946  158.1433 C.ar    1  UNL1        0.2027
     18 N         140.7682  145.7501  157.0097 N.ar    1  UNL1       -0.1892
     19 C         138.1903  145.6029  155.2685 C.3     1  UNL1        0.2542
     20 O         138.9104  144.3979  155.7972 O.3     1  UNL1       -0.4560
     21 C         140.0247  140.7934  163.4819 C.ar    1  UNL1        0.0622
     22 C         139.0104  139.6885  163.4987 C.ar    1  UNL1        0.0154
     23 C         138.4309  139.2222  164.8014 C.ar    1  UNL1        0.0013
     24 C         138.8659  139.8606  166.0871 C.ar    1  UNL1        0.0001
     25 C         139.8804  140.9655  166.0703 C.ar    1  UNL1        0.0013
     26 C         140.4597  141.4318  164.7676 C.ar    1  UNL1        0.0154
     27 C         138.2865  139.3942  167.3897 C.ar    1  UNL1        0.0000
     28 C         137.2713  138.2901  167.4065 C.ar    1  UNL1        0.0000
     29 C         136.6919  137.8237  168.7091 C.ar    1  UNL1        0.0015
     30 C         137.1278  138.4615  169.9949 C.ar    1  UNL1        0.0171
     31 C         138.1429  139.5656  169.9781 C.ar    1  UNL1        0.0015
     32 C         138.7223  140.0320  168.6756 C.ar    1  UNL1        0.0000
     33 C         136.5484  137.9951  171.2975 C.ar    1  UNL1        0.0754
     34 C         135.3670  138.5939  172.0017 C.ar    1  UNL1        0.0409
     35 C         135.1371  137.8169  173.2640 C.ar    1  UNL1        0.1214
     36 N         136.1763  136.7379  173.3401 N.ar    1  UNL1       -0.1711
     37 N         137.0486  136.8481  172.1247 N.ar    1  UNL1       -0.2757
     38 H         137.8148  136.2692  171.9079 H       1  UNL1        0.1889
     39 C         145.0359  140.4688  157.0171 C.3     1  UNL1        0.1183
     40 C         145.1029  141.2998  155.7702 C.ar    1  UNL1        0.0712
     41 N         144.1339  141.0538  154.6519 N.ar    1  UNL1       -0.2471
     42 C         144.2009  141.8850  153.4050 C.ar    1  UNL1        0.0985
     43 C         145.2369  142.9621  153.2764 C.ar    1  UNL1        0.0203
     44 C         146.2059  143.2081  154.3946 C.ar    1  UNL1       -0.0015
     45 C         146.1389  142.3770  155.6415 C.ar    1  UNL1       -0.0069
     46 C         147.1079  142.6230  156.7598 C.3     1  UNL1        0.0323
@<TRIPOS>BOND
     1    19    20    1
     2    20    13    1
     3    13    14   ar
     4    14    15   ar
     5    15     1    1
     6     1     2   am
     7     2     3    2
     8     2     4   am
     9     4    21    1
    10    21    22   ar
    11    22    23   ar
    12    23    24   ar
    13    24    27    1
    14    27    28   ar
    15    28    29   ar
    16    29    30   ar
    17    30    33    1
    18    33    34   ar
    19    34    35   ar
    20    35    36   ar
    21    36    37   ar
    22    30    31   ar
    23    31    32   ar
    24    24    25   ar
    25    25    26   ar
    26     4     5   am
    27     5     6    2
    28     5     7    1
    29     7     8    1
    30     8     9    1
    31     9    10    1
    32    10    39    1
    33    39    40    1
    34    40    41   ar
    35    41    42   ar
    36    42    43   ar
    37    43    44   ar
    38    44    45   ar
    39    45    46    1
    40    10    11    1
    41    11    12    1
    42    15    16   ar
    43    16    17   ar
    44    17    18   ar
    45    18    13   ar
    46     7     1    1
    47    45    40   ar
    48    26    21   ar
    49    12     7    1
    50    32    27   ar
    51    37    33   ar
    52    37    38    1
@<TRIPOS>MOLECULE
*****
 46 52 0 0 0
SMALL
GASTEIGER

@<TRIPOS>ATOM
      1 N         141.8706  140.3271  158.6126 N.am    1  UNL1       -0.2222
      2 C         141.3782  141.7434  158.5686 C.2     1  UNL1        0.3219
      3 O         140.8916  142.5445  159.7396 O.2     1  UNL1       -0.2512
      4 N         141.4580  142.2179  157.1478 N.am    1  UNL1       -0.1907
      5 C         141.9996  141.0950  156.3137 C.2     1  UNL1        0.2529
      6 O         142.2434  141.1337  154.8342 O.2     1  UNL1       -0.2724
      7 C         142.2546  139.9264  157.2190 C.3     1  UNL1        0.1391
      8 C         142.4573  138.8480  158.2418 C.3     1  UNL1        0.0449
      9 C         143.0009  137.5131  157.8264 C.3     1  UNL1        0.0746
     10 N         143.3417  137.2566  156.3884 N.3     1  UNL1       -0.2676
     11 C         143.1390  138.3349  155.3656 C.3     1  UNL1        0.0746
     12 C         142.5954  139.6698  155.7810 C.3     1  UNL1        0.0449
     13 C         140.8095  138.0268  161.6675 C.ar    1  UNL1        0.2293
     14 C         140.7174  138.8906  160.4446 C.ar    1  UNL1        0.0924
     15 C         141.9627  139.4634  159.8354 C.ar    1  UNL1        0.1453
     16 N         143.3001  139.1724  160.4491 N.ar    1  UNL1       -0.2084
     17 C         143.3923  138.3087  161.6719 C.ar    1  UNL1        0.2027
     18 N         142.1470  137.7358  162.2811 N.ar    1  UNL1       -0.1892
     19 C         138.2176  137.8883  161.7789 C.3     1  UNL1        0.2542
     20 O         139.5643  137.4540  162.2767 O.3     1  UNL1       -0.4560
     21 C         141.0651  143.5767  156.6487 C.ar    1  UNL1        0.0622
     22 C         142.0839  144.4558  155.9860 C.ar    1  UNL1        0.0154
     23 C         141.6910  145.8147  155.4869 C.ar    1  UNL1        0.0013
     24 C         140.2793  146.2945  155.6505 C.ar    1  UNL1        0.0001
     25 C         139.2604  145.4154  156.3133 C.ar    1  UNL1        0.0013
     26 C         139.6534  144.0565  156.8123 C.ar    1  UNL1        0.0154
     27 C         139.8864  147.6534  155.1514 C.ar    1  UNL1        0.0000
     28 C         139.0040  148.5330  155.9867 C.ar    1  UNL1        0.0000
     29 C         138.6111  149.8918  155.4877 C.ar    1  UNL1        0.0015
     30 C         139.1006  150.3711  154.1532 C.ar    1  UNL1        0.0171
     31 C         139.9830  149.4915  153.3179 C.ar    1  UNL1        0.0015
     32 C         140.3759  148.1327  153.8169 C.ar    1  UNL1        0.0000
     33 C         138.7077  151.7299  153.6541 C.ar    1  UNL1        0.0754
     34 C         138.8019  152.2096  152.2360 C.ar    1  UNL1        0.0409
     35 C         138.3040  153.6238  152.1909 C.ar    1  UNL1        0.1214
     36 N         137.9021  154.0183  153.5812 N.ar    1  UNL1       -0.1711
     37 N         138.1516  152.8478  154.4856 N.ar    1  UNL1       -0.2757
     38 H         137.9805  152.8184  155.4546 H       1  UNL1        0.1889
     39 C         143.8853  135.9216  155.9730 C.3     1  UNL1        0.1183
     40 C         142.9860  134.9173  155.3154 C.ar    1  UNL1        0.0712
     41 N         142.4152  135.1978  153.9569 N.ar    1  UNL1       -0.2471
     42 C         141.5159  134.1934  153.2993 C.ar    1  UNL1        0.0985
     43 C         141.1874  132.9086  154.0000 C.ar    1  UNL1        0.0203
     44 C         141.7583  132.6280  155.3585 C.ar    1  UNL1       -0.0015
     45 C         142.6576  133.6323  156.0162 C.ar    1  UNL1       -0.0069
     46 C         143.2284  133.3518  157.3746 C.3     1  UNL1        0.0323
@<TRIPOS>BOND
     1    19    20    1
     2    20    13    1
     3    13    14   ar
     4    14    15   ar
     5    15     1    1
     6     1     2   am
     7     2     3    2
     8     2     4   am
     9     4    21    1
    10    21    22   ar
    11    22    23   ar
    12    23    24   ar
    13    24    27    1
    14    27    28   ar
    15    28    29   ar
    16    29    30   ar
    17    30    33    1
    18    33    34   ar
    19    34    35   ar
    20    35    36   ar
    21    36    37   ar
    22    30    31   ar
    23    31    32   ar
    24    24    25   ar
    25    25    26   ar
    26     4     5   am
    27     5     6    2
    28     5     7    1
    29     7     8    1
    30     8     9    1
    31     9    10    1
    32    10    39    1
    33    39    40    1
    34    40    41   ar
    35    41    42   ar
    36    42    43   ar
    37    43    44   ar
    38    44    45   ar
    39    45    46    1
    40    10    11    1
    41    11    12    1
    42    15    16   ar
    43    16    17   ar
    44    17    18   ar
    45    18    13   ar
    46     7     1    1
    47    45    40   ar
    48    26    21   ar
    49    12     7    1
    50    32    27   ar
    51    37    33   ar
    52    37    38    1
