@<TRIPOS>MOLECULE
*****
 18 20 0 0 0
SMALL
GASTEIGER

@<TRIPOS>ATOM
      1 C         139.5576  141.8336  165.8745 C.3     1  UNL1        0.0347
      2 C         139.9434  143.2606  166.1287 C.3     1  UNL1        0.0054
      3 C         139.2112  144.3705  165.4343 C.3     1  UNL1        0.0004
      4 C         138.0933  144.0533  164.4858 C.3     1  UNL1        0.0001
      5 C         137.7075  142.6263  164.2316 C.3     1  UNL1        0.0017
      6 C         138.4397  141.5164  164.9260 C.3     1  UNL1        0.0208
      7 C         138.2844  140.0253  164.8746 C.3     1  UNL1        0.0689
      8 N         139.3064  139.4210  165.7913 N.3     1  UNL1       -0.2972
      9 C         140.0932  140.5385  166.4093 C.3     1  UNL1        0.0726
     10 H         139.9290  138.8110  165.2615 H       1  UNL1        0.1233
     11 CL        144.0883  142.4829  169.7540 Cl      1  UNL1       -0.0814
     12 C         142.9556  142.3206  168.7841 C.ar    1  UNL1        0.0682
     13 C         143.2322  142.2625  167.3110 C.ar    1  UNL1        0.0119
     14 C         142.0995  142.1002  166.3411 C.ar    1  UNL1       -0.0033
     15 C         140.6903  141.9959  166.8444 C.ar    1  UNL1       -0.0206
     16 C         140.4138  142.0540  168.3175 C.ar    1  UNL1        0.0080
     17 C         141.5464  142.2163  169.2873 C.ar    1  UNL1        0.0679
     18 CL        141.2699  142.2744  170.7605 Cl      1  UNL1       -0.0814
@<TRIPOS>BOND
     1    11    12    1
     2    12    13   ar
     3    13    14   ar
     4    14    15   ar
     5     1    15    1
     6     1     2    1
     7     2     3    1
     8     3     4    1
     9     4     5    1
    10     6     5    1
    11     6     7    1
    12     7     8    1
    13     8     9    1
    14    15    16   ar
    15    16    17   ar
    16    17    18    1
    17    17    12   ar
    18     6     1    1
    19     9     1    1
    20     8    10    1
@<TRIPOS>MOLECULE
*****
 18 20 0 0 0
SMALL
GASTEIGER

@<TRIPOS>ATOM
      1 C         143.3159  141.0190  165.8623 C.3     1  UNL1        0.0347
      2 C         143.5713  142.4961  165.9167 C.3     1  UNL1        0.0054
      3 C         144.5529  143.1227  164.9714 C.3     1  UNL1        0.0004
      4 C         145.2791  142.2723  163.9716 C.3     1  UNL1        0.0001
      5 C         145.0237  140.7953  163.9173 C.3     1  UNL1        0.0017
      6 C         144.0421  140.1686  164.8626 C.3     1  UNL1        0.0208
      7 C         143.5873  138.7506  165.0429 C.3     1  UNL1        0.0689
      8 N         142.5800  138.7246  166.1541 N.3     1  UNL1       -0.2972
      9 C         142.4123  140.1266  166.6605 C.3     1  UNL1        0.0726
     10 H         142.9110  138.1218  166.9073 H       1  UNL1        0.1233
     11 CL        140.1284  143.8940  170.0545 Cl      1  UNL1       -0.0814
     12 C         140.9253  143.1752  169.0064 C.ar    1  UNL1        0.0682
     13 C         140.3130  142.8813  167.6691 C.ar    1  UNL1        0.0119
     14 C         141.1099  142.1625  166.6210 C.ar    1  UNL1       -0.0033
     15 C         142.5190  141.7378  166.9104 C.ar    1  UNL1       -0.0206
     16 C         143.1313  142.0317  168.2478 C.ar    1  UNL1        0.0080
     17 C         142.3345  142.7505  169.2958 C.ar    1  UNL1        0.0679
     18 CL        142.9468  143.0445  170.6332 Cl      1  UNL1       -0.0814
@<TRIPOS>BOND
     1    11    12    1
     2    12    13   ar
     3    13    14   ar
     4    14    15   ar
     5     1    15    1
     6     1     2    1
     7     2     3    1
     8     3     4    1
     9     4     5    1
    10     6     5    1
    11     6     7    1
    12     7     8    1
    13     8     9    1
    14    15    16   ar
    15    16    17   ar
    16    17    18    1
    17    17    12   ar
    18     6     1    1
    19     9     1    1
    20     8    10    1
@<TRIPOS>MOLECULE
*****
 18 20 0 0 0
SMALL
GASTEIGER

@<TRIPOS>ATOM
      1 C         140.9344  139.4401  166.1717 C.3     1  UNL1        0.0347
      2 C         139.5318  139.6505  166.6597 C.3     1  UNL1        0.0054
      3 C         138.4286  138.7541  166.1808 C.3     1  UNL1        0.0004
      4 C         138.7282  137.6472  165.2138 C.3     1  UNL1        0.0001
      5 C         140.1308  137.4368  164.7257 C.3     1  UNL1        0.0017
      6 C         141.2340  138.3332  165.2047 C.3     1  UNL1        0.0208
      7 C         142.7025  138.3679  164.9009 C.3     1  UNL1        0.0689
      8 N         143.3105  139.4962  165.6801 N.3     1  UNL1       -0.2972
      9 C         142.2178  140.1589  166.4655 C.3     1  UNL1        0.0726
     10 H         143.7346  140.1690  165.0414 H       1  UNL1        0.1233
     11 CL        140.3477  144.0090  170.0163 Cl      1  UNL1       -0.0814
     12 C         140.4944  142.8668  169.0551 C.ar    1  UNL1        0.0682
     13 C         140.3479  143.1034  167.5812 C.ar    1  UNL1        0.0119
     14 C         140.4946  141.9611  166.6201 C.ar    1  UNL1       -0.0033
     15 C         140.7877  140.5824  167.1329 C.ar    1  UNL1       -0.0206
     16 C         140.9342  140.3458  168.6068 C.ar    1  UNL1        0.0080
     17 C         140.7875  141.4880  169.5679 C.ar    1  UNL1        0.0679
     18 CL        140.9340  141.2514  171.0419 Cl      1  UNL1       -0.0814
@<TRIPOS>BOND
     1    11    12    1
     2    12    13   ar
     3    13    14   ar
     4    14    15   ar
     5     1    15    1
     6     1     2    1
     7     2     3    1
     8     3     4    1
     9     4     5    1
    10     6     5    1
    11     6     7    1
    12     7     8    1
    13     8     9    1
    14    15    16   ar
    15    16    17   ar
    16    17    18    1
    17    17    12   ar
    18     6     1    1
    19     9     1    1
    20     8    10    1
@<TRIPOS>MOLECULE
*****
 18 20 0 0 0
SMALL
GASTEIGER

@<TRIPOS>ATOM
      1 C         140.2651  141.3697  167.0893 C.3     1  UNL1        0.0347
      2 C         140.7894  142.6115  167.7474 C.3     1  UNL1        0.0054
      3 C         140.5772  142.8284  169.2164 C.3     1  UNL1        0.0004
      4 C         139.8407  141.8036  170.0272 C.3     1  UNL1        0.0001
      5 C         139.3165  140.5619  169.3691 C.3     1  UNL1        0.0017
      6 C         139.5287  140.3449  167.9001 C.3     1  UNL1        0.0208
      7 C         139.1298  139.2273  166.9827 C.3     1  UNL1        0.0689
      8 N         139.6197  139.5613  165.6048 N.3     1  UNL1       -0.2972
      9 C         140.3214  140.8854  165.6708 C.3     1  UNL1        0.0726
     10 H         138.8303  139.6195  164.9614 H       1  UNL1        0.1233
     11 CL        143.1195  145.0943  163.3503 Cl      1  UNL1       -0.0814
     12 C         142.4059  144.1631  164.2851 C.ar    1  UNL1        0.0682
     13 C         140.9167  144.2521  164.4402 C.ar    1  UNL1        0.0119
     14 C         140.2031  143.3210  165.3750 C.ar    1  UNL1       -0.0033
     15 C         140.9787  142.3009  166.1545 C.ar    1  UNL1       -0.0206
     16 C         142.4680  142.2120  165.9993 C.ar    1  UNL1        0.0080
     17 C         143.1816  143.1431  165.0646 C.ar    1  UNL1        0.0679
     18 CL        144.6709  143.0541  164.9094 Cl      1  UNL1       -0.0814
@<TRIPOS>BOND
     1    11    12    1
     2    12    13   ar
     3    13    14   ar
     4    14    15   ar
     5     1    15    1
     6     1     2    1
     7     2     3    1
     8     3     4    1
     9     4     5    1
    10     6     5    1
    11     6     7    1
    12     7     8    1
    13     8     9    1
    14    15    16   ar
    15    16    17   ar
    16    17    18    1
    17    17    12   ar
    18     6     1    1
    19     9     1    1
    20     8    10    1
@<TRIPOS>MOLECULE
*****
 18 20 0 0 0
SMALL
GASTEIGER

@<TRIPOS>ATOM
      1 C         139.5625  139.5980  164.7793 C.3     1  UNL1        0.0347
      2 C         140.7670  139.1199  165.5345 C.3     1  UNL1        0.0054
      3 C         141.5427  137.9361  165.0374 C.3     1  UNL1        0.0004
      4 C         141.1137  137.2305  163.7852 C.3     1  UNL1        0.0001
      5 C         139.9092  137.7087  163.0300 C.3     1  UNL1        0.0017
      6 C         139.1336  138.8924  163.5270 C.3     1  UNL1        0.0208
      7 C         137.9137  139.5870  162.9983 C.3     1  UNL1        0.0689
      8 N         137.5887  140.7218  163.9238 N.3     1  UNL1       -0.2972
      9 C         138.6077  140.7286  165.0245 C.3     1  UNL1        0.0726
     10 H         136.6561  140.5922  164.3162 H       1  UNL1        0.1233
     11 CL        140.7907  142.8061  169.6986 Cl      1  UNL1       -0.0814
     12 C         140.4837  142.0040  168.4687 C.ar    1  UNL1        0.0682
     13 C         140.9721  142.4690  167.1289 C.ar    1  UNL1        0.0119
     14 C         140.6651  141.6669  165.8991 C.ar    1  UNL1       -0.0033
     15 C         139.8696  140.4000  166.0091 C.ar    1  UNL1       -0.0206
     16 C         139.3811  139.9352  167.3490 C.ar    1  UNL1        0.0080
     17 C         139.6882  140.7372  168.5788 C.ar    1  UNL1        0.0679
     18 CL        139.1997  140.2723  169.9187 Cl      1  UNL1       -0.0814
@<TRIPOS>BOND
     1    11    12    1
     2    12    13   ar
     3    13    14   ar
     4    14    15   ar
     5     1    15    1
     6     1     2    1
     7     2     3    1
     8     3     4    1
     9     4     5    1
    10     6     5    1
    11     6     7    1
    12     7     8    1
    13     8     9    1
    14    15    16   ar
    15    16    17   ar
    16    17    18    1
    17    17    12   ar
    18     6     1    1
    19     9     1    1
    20     8    10    1
@<TRIPOS>MOLECULE
*****
 18 20 0 0 0
SMALL
GASTEIGER

@<TRIPOS>ATOM
      1 C         140.1256  141.4369  167.3139 C.3     1  UNL1        0.0347
      2 C         140.6676  142.7182  167.8744 C.3     1  UNL1        0.0054
      3 C         140.5317  143.0130  169.3389 C.3     1  UNL1        0.0004
      4 C         139.8538  142.0264  170.2428 C.3     1  UNL1        0.0001
      5 C         139.3118  140.7450  169.6822 C.3     1  UNL1        0.0017
      6 C         139.4477  140.4502  168.2178 C.3     1  UNL1        0.0208
      7 C         139.0152  139.2799  167.3852 C.3     1  UNL1        0.0689
      8 N         139.4259  139.5431  165.9667 N.3     1  UNL1       -0.2972
      9 C         140.1121  140.8762  165.9227 C.3     1  UNL1        0.0726
     10 H         138.6024  139.5577  165.3650 H       1  UNL1        0.1233
     11 CL        142.7244  144.9811  163.2293 Cl      1  UNL1       -0.0814
     12 C         142.0747  144.0951  164.2505 C.ar    1  UNL1        0.0682
     13 C         142.9064  143.1350  165.0481 C.ar    1  UNL1        0.0119
     14 C         142.2567  142.2489  166.0693 C.ar    1  UNL1       -0.0033
     15 C         140.7753  142.3229  166.2927 C.ar    1  UNL1       -0.0206
     16 C         139.9436  143.2831  165.4950 C.ar    1  UNL1        0.0080
     17 C         140.5933  144.1691  164.4739 C.ar    1  UNL1        0.0679
     18 CL        139.7616  145.1293  163.6762 Cl      1  UNL1       -0.0814
@<TRIPOS>BOND
     1    11    12    1
     2    12    13   ar
     3    13    14   ar
     4    14    15   ar
     5     1    15    1
     6     1     2    1
     7     2     3    1
     8     3     4    1
     9     4     5    1
    10     6     5    1
    11     6     7    1
    12     7     8    1
    13     8     9    1
    14    15    16   ar
    15    16    17   ar
    16    17    18    1
    17    17    12   ar
    18     6     1    1
    19     9     1    1
    20     8    10    1
@<TRIPOS>MOLECULE
*****
 18 20 0 0 0
SMALL
GASTEIGER

@<TRIPOS>ATOM
      1 C         141.1526  143.0292  165.6178 C.3     1  UNL1        0.0347
      2 C         139.7083  143.2981  165.9204 C.3     1  UNL1        0.0054
      3 C         138.9302  144.2583  165.0704 C.3     1  UNL1        0.0004
      4 C         139.5963  144.9495  163.9178 C.3     1  UNL1        0.0001
      5 C         141.0406  144.6805  163.6152 C.3     1  UNL1        0.0017
      6 C         141.8187  143.7204  164.4652 C.3     1  UNL1        0.0208
      7 C         143.2450  143.2590  164.4096 C.3     1  UNL1        0.0689
      8 N         143.4603  142.2827  165.5278 N.3     1  UNL1       -0.2972
      9 C         142.1671  142.1406  166.2745 C.3     1  UNL1        0.0726
     10 H         144.1860  142.6294  166.1551 H       1  UNL1        0.1233
     11 CL        139.0391  139.9827  170.3350 Cl      1  UNL1       -0.0814
     12 C         139.5675  140.7443  169.1557 C.ar    1  UNL1        0.0682
     13 C         139.5788  140.1094  167.7968 C.ar    1  UNL1        0.0119
     14 C         140.1072  140.8710  166.6175 C.ar    1  UNL1       -0.0033
     15 C         140.6242  142.2675  166.7971 C.ar    1  UNL1       -0.0206
     16 C         140.6129  142.9025  168.1560 C.ar    1  UNL1        0.0080
     17 C         140.0846  142.1409  169.3353 C.ar    1  UNL1        0.0679
     18 CL        140.0733  142.7758  170.6942 Cl      1  UNL1       -0.0814
@<TRIPOS>BOND
     1    11    12    1
     2    12    13   ar
     3    13    14   ar
     4    14    15   ar
     5     1    15    1
     6     1     2    1
     7     2     3    1
     8     3     4    1
     9     4     5    1
    10     6     5    1
    11     6     7    1
    12     7     8    1
    13     8     9    1
    14    15    16   ar
    15    16    17   ar
    16    17    18    1
    17    17    12   ar
    18     6     1    1
    19     9     1    1
    20     8    10    1
@<TRIPOS>MOLECULE
*****
 18 20 0 0 0
SMALL
GASTEIGER

@<TRIPOS>ATOM
      1 C         140.9686  140.2079  167.5648 C.3     1  UNL1        0.0347
      2 C         139.7265  140.8114  168.1505 C.3     1  UNL1        0.0054
      3 C         139.4741  140.7233  169.6265 C.3     1  UNL1        0.0004
      4 C         140.4636  140.0318  170.5167 C.3     1  UNL1        0.0001
      5 C         141.7057  139.4283  169.9310 C.3     1  UNL1        0.0017
      6 C         141.9582  139.5164  168.4551 C.3     1  UNL1        0.0208
      7 C         143.0846  139.0197  167.5981 C.3     1  UNL1        0.0689
      8 N         142.7913  139.4042  166.1782 N.3     1  UNL1       -0.2972
      9 C         141.4835  140.1386  166.1577 C.3     1  UNL1        0.0726
     10 H         142.7273  138.5670  165.5990 H       1  UNL1        0.1233
     11 CL        137.3928  142.8345  163.5257 Cl      1  UNL1       -0.0814
     12 C         138.2868  142.1778  164.5355 C.ar    1  UNL1        0.0682
     13 C         138.1604  140.7078  164.8054 C.ar    1  UNL1        0.0119
     14 C         139.0543  140.0512  165.8153 C.ar    1  UNL1       -0.0033
     15 C         140.0746  140.8646  166.5550 C.ar    1  UNL1       -0.0206
     16 C         140.2010  142.3346  166.2850 C.ar    1  UNL1        0.0080
     17 C         139.3071  142.9912  165.2753 C.ar    1  UNL1        0.0679
     18 CL        139.4335  144.4613  165.0052 Cl      1  UNL1       -0.0814
@<TRIPOS>BOND
     1    11    12    1
     2    12    13   ar
     3    13    14   ar
     4    14    15   ar
     5     1    15    1
     6     1     2    1
     7     2     3    1
     8     3     4    1
     9     4     5    1
    10     6     5    1
    11     6     7    1
    12     7     8    1
    13     8     9    1
    14    15    16   ar
    15    16    17   ar
    16    17    18    1
    17    17    12   ar
    18     6     1    1
    19     9     1    1
    20     8    10    1
@<TRIPOS>MOLECULE
*****
 18 20 0 0 0
SMALL
GASTEIGER

@<TRIPOS>ATOM
      1 C         140.1324  140.4406  167.3061 C.3     1  UNL1        0.0347
      2 C         140.9391  140.8587  166.1126 C.3     1  UNL1        0.0054
      3 C         142.1720  141.6932  166.2957 C.3     1  UNL1        0.0004
      4 C         142.5982  142.1096  167.6723 C.3     1  UNL1        0.0001
      5 C         141.7915  141.6915  168.8657 C.3     1  UNL1        0.0017
      6 C         140.5586  140.8570  168.6826 C.3     1  UNL1        0.0208
      7 C         139.5704  140.2979  169.6628 C.3     1  UNL1        0.0689
      8 N         138.5334  139.5359  168.8921 N.3     1  UNL1       -0.2972
      9 C         138.8808  139.6241  167.4355 C.3     1  UNL1        0.0726
     10 H         137.6127  139.9440  169.0537 H       1  UNL1        0.1233
     11 CL        137.9446  138.4817  162.0739 Cl      1  UNL1       -0.0814
     12 C         138.4916  138.9714  163.3819 C.ar    1  UNL1        0.0682
     13 C         139.3881  138.0880  164.1978 C.ar    1  UNL1        0.0119
     14 C         139.9351  138.5777  165.5058 C.ar    1  UNL1       -0.0033
     15 C         139.5855  139.9509  165.9980 C.ar    1  UNL1       -0.0206
     16 C         138.6889  140.8343  165.1821 C.ar    1  UNL1        0.0080
     17 C         138.1420  140.3445  163.8741 C.ar    1  UNL1        0.0679
     18 CL        137.2454  141.2279  163.0582 Cl      1  UNL1       -0.0814
@<TRIPOS>BOND
     1    11    12    1
     2    12    13   ar
     3    13    14   ar
     4    14    15   ar
     5     1    15    1
     6     1     2    1
     7     2     3    1
     8     3     4    1
     9     4     5    1
    10     6     5    1
    11     6     7    1
    12     7     8    1
    13     8     9    1
    14    15    16   ar
    15    16    17   ar
    16    17    18    1
    17    17    12   ar
    18     6     1    1
    19     9     1    1
    20     8    10    1
