@<TRIPOS>MOLECULE
*****
 60 65 0 0 0
SMALL
GASTEIGER

@<TRIPOS>ATOM
      1 C         142.5240  143.8642  161.0553 C.2     1  UNL1        0.1235
      2 C         141.1886  144.1052  160.4159 C.2     1  UNL1        0.1026
      3 C         140.6842  143.1700  159.3573 C.3     1  UNL1        0.1481
      4 O         139.3489  143.4110  158.7180 O.3     1  UNL1       -0.3789
      5 C         141.5151  141.9937  158.9379 C.3     1  UNL1        0.0450
      6 C         140.1798  142.2347  158.2986 C.3     1  UNL1        0.0068
      7 C         141.0107  141.0584  157.8792 C.2     1  UNL1       -0.0400
      8 C         139.6753  141.2994  157.2399 C.2     1  UNL1        0.0290
      9 C         139.1709  140.3642  156.1812 C.2     1  UNL1        0.1721
     10 O         137.8355  140.6052  155.5419 O.2     1  UNL1       -0.2914
     11 C         140.0018  139.1879  155.7618 C.3     1  UNL1        0.0627
     12 C         139.4973  138.2526  154.7031 C.3     1  UNL1        0.0173
     13 C         138.1619  138.4937  154.0638 C.3     1  UNL1        0.0010
     14 C         137.6575  137.5584  153.0052 C.3     1  UNL1        0.0000
     15 C         136.7557  136.9594  151.9669 C.3     1  UNL1        0.0000
     16 C         136.5134  138.5267  153.0639 C.3     1  UNL1        0.0000
     17 C         138.4884  136.3821  152.5858 C.3     1  UNL1        0.0005
     18 C         139.8237  136.1410  153.2251 C.3     1  UNL1        0.0106
     19 C         140.3282  137.0763  154.2837 C.3     1  UNL1        0.0900
     20 C         141.6636  136.8352  154.9231 C.3     1  UNL1        0.0106
     21 C         142.1680  137.7705  155.9818 C.3     1  UNL1        0.0013
     22 C         141.3371  138.9468  156.4011 C.3     1  UNL1        0.0100
     23 C         142.6725  138.7058  157.0405 C.3     1  UNL1        0.0007
     24 C         141.8416  139.8821  157.4599 C.3     1  UNL1        0.0157
     25 C         142.3460  140.8173  158.5185 C.3     1  UNL1        0.0041
     26 C         143.1769  139.6410  158.0992 C.3     1  UNL1        0.0038
     27 C         143.6813  140.5763  159.1578 C.3     1  UNL1        0.0011
     28 C         142.8504  141.7526  159.5772 C.3     1  UNL1        0.0127
     29 C         143.3549  142.6879  160.6359 C.3     1  UNL1        0.0514
     30 C         144.2567  143.2868  161.6742 C.3     1  UNL1        0.0075
     31 C         144.4990  141.7196  160.5771 C.3     1  UNL1        0.0075
     32 H         138.9461  144.2063  159.1005 H       1  UNL1        0.2108
     33 C         140.3577  145.2815  160.8353 C.1     1  UNL1        0.1012
     34 N         139.5268  146.4579  161.2547 N.1     1  UNL1       -0.1910
     35 C         141.1591  135.9000  153.8644 C.2     1  UNL1        0.3160
     36 O         142.1218  136.0311  152.7215 O.2     1  UNL1       -0.2501
     37 O         141.0273  134.5926  154.5878 O.3     1  UNL1       -0.4444
     38 C         141.6412  133.3513  154.0114 C.3     1  UNL1        0.2556
     39 O         143.0285  144.7994  162.1140 O.2     1  UNL1       -0.4745
     40 C         142.2067  145.0547  163.3425 C.3     1  UNL1        0.2315
     41 C         142.2801  142.1159  166.7496 C.ar    1  UNL1        0.0503
     42 C         143.5667  142.6082  166.1560 C.ar    1  UNL1        0.0145
     43 C         143.5422  143.5879  165.0203 C.ar    1  UNL1        0.0006
     44 C         142.2312  144.0751  164.4782 C.ar    1  UNL1        0.0212
     45 C         140.9446  143.5827  165.0718 C.ar    1  UNL1        0.0006
     46 C         140.9691  142.6031  166.2075 C.ar    1  UNL1        0.0145
     47 C         143.0346  141.4739  169.1513 C.2     1  UNL1        0.2262
     48 O         143.7402  142.7912  169.2818 O.2     1  UNL1       -0.2748
     49 N         142.3046  141.1363  167.8852 N.am    1  UNL1       -0.2839
     50 H         141.8415  140.2717  167.7996 H       1  UNL1        0.1549
     51 C         143.0591  140.4943  170.2871 C.3     1  UNL1        0.0873
     52 C         141.8618  140.3500  171.1790 C.3     1  UNL1        0.0365
     53 C         140.5685  141.0151  170.8117 C.3     1  UNL1        0.1517
     54 N         140.2868  142.4141  171.2736 N.3     1  UNL1       -0.3134
     55 H         139.3698  142.7057  170.9354 H       1  UNL1        0.1193
     56 H         141.0006  143.0435  170.9065 H       1  UNL1        0.1193
     57 C         139.5567  140.2811  169.9823 C.2     1  UNL1        0.3312
     58 O         138.1345  140.1820  170.4486 O.2     1  UNL1       -0.2486
     59 C         139.0325  139.6637  167.5137 C.3     1  UNL1        0.2556
     60 O         139.9672  139.6463  168.6868 O.3     1  UNL1       -0.4435
@<TRIPOS>BOND
     1    59    60    1
     2    60    57    1
     3    57    58    2
     4    57    53    1
     5    53    54    1
     6    53    52    1
     7    52    51    1
     8    51    47    1
     9    47    48    2
    10    47    49   am
    11    49    41    1
    12    41    42   ar
    13    42    43   ar
    14    43    44   ar
    15    44    40    1
    16    40    39    1
    17    39     1    1
    18     1     2    2
    19     2    33    1
    20    33    34    3
    21     2     3    1
    22     3     4    1
    23     3     5    1
    24     5     6    1
    25     5     7    1
    26     7     8    2
    27     8     9    1
    28     9    10    2
    29    11     9    1
    30    11    12    1
    31    12    13    1
    32    13    14    1
    33    14    15    1
    34    14    16    1
    35    14    17    1
    36    17    18    1
    37    18    19    1
    38    19    35    1
    39    35    36    2
    40    35    37    1
    41    37    38    1
    42    19    20    1
    43    20    21    1
    44    21    22    1
    45    22    23    1
    46    22    24    1
    47    24    25    1
    48    24    26    1
    49    26    27    1
    50    28    27    1
    51    28    29    1
    52    29    30    1
    53    29    31    1
    54    44    45   ar
    55    45    46   ar
    56    46    41   ar
    57    29     1    1
    58    28     5    1
    59    24     7    1
    60    22    11    1
    61    19    12    1
    62    54    55    1
    63    54    56    1
    64    49    50    1
    65     4    32    1
@<TRIPOS>MOLECULE
*****
 60 65 0 0 0
SMALL
GASTEIGER

@<TRIPOS>ATOM
      1 C         141.4992  144.3294  159.3284 C.2     1  UNL1        0.1235
      2 C         142.3308  143.1045  159.5696 C.2     1  UNL1        0.1026
      3 C         142.3879  142.4945  160.9388 C.3     1  UNL1        0.1481
      4 O         143.2195  141.2696  161.1800 O.3     1  UNL1       -0.3789
      5 C         141.6135  143.1093  162.0667 C.3     1  UNL1        0.0450
      6 C         142.4450  141.8844  162.3079 C.3     1  UNL1        0.0068
      7 C         141.6706  142.4992  163.4358 C.2     1  UNL1       -0.0400
      8 C         142.5022  141.2743  163.6771 C.2     1  UNL1        0.0290
      9 C         142.5593  140.6643  165.0462 C.2     1  UNL1        0.1721
     10 O         143.3909  139.4394  165.2875 O.2     1  UNL1       -0.2914
     11 C         141.7849  141.2791  166.1741 C.3     1  UNL1        0.0627
     12 C         141.8420  140.6690  167.5433 C.3     1  UNL1        0.0173
     13 C         142.6736  139.4442  167.7845 C.3     1  UNL1        0.0010
     14 C         142.7307  138.8342  169.1536 C.3     1  UNL1        0.0000
     15 C         143.1015  137.8977  170.2651 C.3     1  UNL1        0.0000
     16 C         143.6340  137.8941  168.4118 C.3     1  UNL1        0.0000
     17 C         141.9563  139.4490  170.2816 C.3     1  UNL1        0.0005
     18 C         141.1247  140.6738  170.0404 C.3     1  UNL1        0.0106
     19 C         141.0676  141.2838  168.6713 C.3     1  UNL1        0.0900
     20 C         140.2359  142.5087  168.4300 C.3     1  UNL1        0.0106
     21 C         140.1788  143.1187  167.0609 C.3     1  UNL1        0.0013
     22 C         140.9533  142.5039  165.9329 C.3     1  UNL1        0.0100
     23 C         140.1217  143.7288  165.6917 C.3     1  UNL1        0.0007
     24 C         140.8961  143.1140  164.5637 C.3     1  UNL1        0.0157
     25 C         140.8390  143.7241  163.1946 C.3     1  UNL1        0.0041
     26 C         140.0645  144.3389  164.3226 C.3     1  UNL1        0.0038
     27 C         140.0074  144.9489  162.9534 C.3     1  UNL1        0.0011
     28 C         140.7819  144.3341  161.8255 C.3     1  UNL1        0.0127
     29 C         140.7247  144.9442  160.4563 C.3     1  UNL1        0.0514
     30 C         140.3539  145.8807  159.3448 C.3     1  UNL1        0.0075
     31 C         139.8215  145.8842  161.1982 C.3     1  UNL1        0.0075
     32 H         143.6513  141.0040  160.3530 H       1  UNL1        0.2108
     33 C         143.1053  142.4897  158.4417 C.1     1  UNL1        0.1012
     34 N         143.8797  141.8749  157.3138 N.1     1  UNL1       -0.1910
     35 C         140.2931  141.8986  169.7992 C.2     1  UNL1        0.3160
     36 O         138.9606  141.3317  170.1906 O.2     1  UNL1       -0.2501
     37 O         140.8511  143.0802  170.5356 O.3     1  UNL1       -0.4444
     38 C         140.2253  144.4330  170.3669 C.3     1  UNL1        0.2556
     39 O         141.4421  144.9394  157.9592 O.2     1  UNL1       -0.4745
     40 C         141.1227  144.0835  156.7696 C.3     1  UNL1        0.2315
     41 C         136.9863  142.3847  156.2651 C.ar    1  UNL1        0.0503
     42 C         137.8112  142.0079  157.4598 C.ar    1  UNL1        0.0145
     43 C         139.1901  142.5741  157.6280 C.ar    1  UNL1        0.0006
     44 C         139.7439  143.5172  156.6014 C.ar    1  UNL1        0.0212
     45 C         138.9189  143.8941  155.4067 C.ar    1  UNL1        0.0006
     46 C         137.5402  143.3278  155.2385 C.ar    1  UNL1        0.0145
     47 C         135.4292  140.4073  155.6209 C.2     1  UNL1        0.2262
     48 O         136.6297  139.5623  155.3131 O.2     1  UNL1       -0.2748
     49 N         135.6075  141.8185  156.0969 N.am    1  UNL1       -0.2839
     50 H         134.8196  142.3731  156.2989 H       1  UNL1        0.1549
     51 C         134.0504  139.8410  155.4527 C.3     1  UNL1        0.0873
     52 C         132.8810  140.5039  156.1183 C.3     1  UNL1        0.0365
     53 C         132.1518  139.8026  157.2257 C.3     1  UNL1        0.1517
     54 N         132.9175  139.2178  158.3754 N.3     1  UNL1       -0.3134
     55 H         132.2678  138.7825  159.0303 H       1  UNL1        0.1193
     56 H         133.4348  139.9574  158.8507 H       1  UNL1        0.1193
     57 C         130.6569  139.6859  157.1834 C.2     1  UNL1        0.3312
     58 O         129.9208  139.0591  158.3303 O.2     1  UNL1       -0.2486
     59 C         128.5790  140.8842  156.1852 C.3     1  UNL1        0.2556
     60 O         129.8982  140.1961  155.9944 O.3     1  UNL1       -0.4435
@<TRIPOS>BOND
     1    59    60    1
     2    60    57    1
     3    57    58    2
     4    57    53    1
     5    53    54    1
     6    53    52    1
     7    52    51    1
     8    51    47    1
     9    47    48    2
    10    47    49   am
    11    49    41    1
    12    41    42   ar
    13    42    43   ar
    14    43    44   ar
    15    44    40    1
    16    40    39    1
    17    39     1    1
    18     1     2    2
    19     2    33    1
    20    33    34    3
    21     2     3    1
    22     3     4    1
    23     3     5    1
    24     5     6    1
    25     5     7    1
    26     7     8    2
    27     8     9    1
    28     9    10    2
    29    11     9    1
    30    11    12    1
    31    12    13    1
    32    13    14    1
    33    14    15    1
    34    14    16    1
    35    14    17    1
    36    17    18    1
    37    18    19    1
    38    19    35    1
    39    35    36    2
    40    35    37    1
    41    37    38    1
    42    19    20    1
    43    20    21    1
    44    21    22    1
    45    22    23    1
    46    22    24    1
    47    24    25    1
    48    24    26    1
    49    26    27    1
    50    28    27    1
    51    28    29    1
    52    29    30    1
    53    29    31    1
    54    44    45   ar
    55    45    46   ar
    56    46    41   ar
    57    29     1    1
    58    28     5    1
    59    24     7    1
    60    22    11    1
    61    19    12    1
    62    54    55    1
    63    54    56    1
    64    49    50    1
    65     4    32    1
@<TRIPOS>MOLECULE
*****
 60 65 0 0 0
SMALL
GASTEIGER

@<TRIPOS>ATOM
      1 C         140.5107  143.0190  163.9967 C.2     1  UNL1        0.1235
      2 C         141.6080  141.9996  163.9138 C.2     1  UNL1        0.1026
      3 C         141.7055  141.0982  162.7188 C.3     1  UNL1        0.1481
      4 O         142.8027  140.0788  162.6360 O.3     1  UNL1       -0.3789
      5 C         140.7057  141.2161  161.6068 C.3     1  UNL1        0.0450
      6 C         141.8030  140.1968  161.5239 C.3     1  UNL1        0.0068
      7 C         140.8032  140.3147  160.4119 C.2     1  UNL1       -0.0400
      8 C         141.9005  139.2953  160.3289 C.2     1  UNL1        0.0290
      9 C         141.9980  138.3939  159.1340 C.2     1  UNL1        0.1721
     10 O         143.0953  137.3744  159.0511 O.2     1  UNL1       -0.2914
     11 C         140.9983  138.5118  158.0220 C.3     1  UNL1        0.0627
     12 C         141.0958  137.6103  156.8270 C.3     1  UNL1        0.0173
     13 C         142.1931  136.5910  156.7441 C.3     1  UNL1        0.0010
     14 C         142.2906  135.6896  155.5492 C.3     1  UNL1        0.0000
     15 C         142.7963  134.6179  154.6295 C.3     1  UNL1        0.0000
     16 C         143.4659  135.1994  156.3418 C.3     1  UNL1        0.0000
     17 C         141.2908  135.8075  154.4372 C.3     1  UNL1        0.0005
     18 C         140.1936  136.8269  154.5200 C.3     1  UNL1        0.0106
     19 C         140.0961  137.7283  155.7150 C.3     1  UNL1        0.0900
     20 C         138.9988  138.7477  155.7979 C.3     1  UNL1        0.0106
     21 C         138.9013  139.6491  156.9928 C.3     1  UNL1        0.0013
     22 C         139.9011  139.5312  158.1049 C.3     1  UNL1        0.0100
     23 C         138.8038  140.5506  158.1878 C.3     1  UNL1        0.0007
     24 C         139.8035  140.4327  159.2998 C.3     1  UNL1        0.0157
     25 C         139.7060  141.3341  160.4948 C.3     1  UNL1        0.0041
     26 C         138.7063  141.4520  159.3827 C.3     1  UNL1        0.0038
     27 C         138.6088  142.3535  160.5777 C.3     1  UNL1        0.0011
     28 C         139.6085  142.2355  161.6897 C.3     1  UNL1        0.0127
     29 C         139.5109  143.1370  162.8847 C.3     1  UNL1        0.0514
     30 C         139.0053  144.2086  163.8044 C.3     1  UNL1        0.0075
     31 C         138.3356  143.6271  162.0921 C.3     1  UNL1        0.0075
     32 H         143.3568  140.1349  163.4301 H       1  UNL1        0.2108
     33 C         142.6077  141.8816  165.0258 C.1     1  UNL1        0.1012
     34 N         143.6074  141.7637  166.1378 N.1     1  UNL1       -0.1910
     35 C         139.0964  137.8463  154.6029 C.2     1  UNL1        0.3160
     36 O         139.4831  138.5089  153.3139 O.2     1  UNL1       -0.2501
     37 O         137.7100  137.3016  154.7799 O.3     1  UNL1       -0.4444
     38 C         136.7321  137.3563  153.6438 C.3     1  UNL1        0.2556
     39 O         140.4132  143.9205  165.1916 O.2     1  UNL1       -0.4745
     40 C         139.5978  143.5048  166.3800 C.3     1  UNL1        0.2315
     41 C         141.2004  140.4243  169.2423 C.ar    1  UNL1        0.0503
     42 C         141.5289  141.8745  169.4400 C.ar    1  UNL1        0.0145
     43 C         140.9947  142.9013  168.4859 C.ar    1  UNL1        0.0006
     44 C         140.1320  142.4780  167.3342 C.ar    1  UNL1        0.0212
     45 C         139.8035  141.0278  167.1365 C.ar    1  UNL1        0.0006
     46 C         140.3376  140.0010  168.0905 C.ar    1  UNL1        0.0145
     47 C         142.8142  138.4542  169.7557 C.2     1  UNL1        0.2262
     48 O         143.3598  138.5377  168.3609 O.2     1  UNL1       -0.2748
     49 N         141.7345  139.3975  170.1964 N.am    1  UNL1       -0.2839
     50 H         141.3764  139.3427  171.1118 H       1  UNL1        0.1549
     51 C         143.3485  137.4273  170.7097 C.3     1  UNL1        0.0873
     52 C         144.4920  136.5468  170.3009 C.3     1  UNL1        0.0365
     53 C         145.5737  136.2167  171.2862 C.3     1  UNL1        0.1517
     54 N         146.9652  136.7350  171.0739 N.3     1  UNL1       -0.3134
     55 H         147.5664  136.4162  171.8337 H       1  UNL1        0.1193
     56 H         146.9494  137.7548  171.0578 H       1  UNL1        0.1193
     57 C         145.2640  135.3682  172.4838 C.2     1  UNL1        0.3312
     58 O         143.8412  135.0253  172.8123 O.2     1  UNL1       -0.2486
     59 C         147.1362  135.8149  174.2290 C.3     1  UNL1        0.2556
     60 O         146.3771  134.8628  173.3530 O.3     1  UNL1       -0.4435
@<TRIPOS>BOND
     1    59    60    1
     2    60    57    1
     3    57    58    2
     4    57    53    1
     5    53    54    1
     6    53    52    1
     7    52    51    1
     8    51    47    1
     9    47    48    2
    10    47    49   am
    11    49    41    1
    12    41    42   ar
    13    42    43   ar
    14    43    44   ar
    15    44    40    1
    16    40    39    1
    17    39     1    1
    18     1     2    2
    19     2    33    1
    20    33    34    3
    21     2     3    1
    22     3     4    1
    23     3     5    1
    24     5     6    1
    25     5     7    1
    26     7     8    2
    27     8     9    1
    28     9    10    2
    29    11     9    1
    30    11    12    1
    31    12    13    1
    32    13    14    1
    33    14    15    1
    34    14    16    1
    35    14    17    1
    36    17    18    1
    37    18    19    1
    38    19    35    1
    39    35    36    2
    40    35    37    1
    41    37    38    1
    42    19    20    1
    43    20    21    1
    44    21    22    1
    45    22    23    1
    46    22    24    1
    47    24    25    1
    48    24    26    1
    49    26    27    1
    50    28    27    1
    51    28    29    1
    52    29    30    1
    53    29    31    1
    54    44    45   ar
    55    45    46   ar
    56    46    41   ar
    57    29     1    1
    58    28     5    1
    59    24     7    1
    60    22    11    1
    61    19    12    1
    62    54    55    1
    63    54    56    1
    64    49    50    1
    65     4    32    1
@<TRIPOS>MOLECULE
*****
 60 65 0 0 0
SMALL
GASTEIGER

@<TRIPOS>ATOM
      1 C         141.6763  140.2412  157.0011 C.2     1  UNL1        0.1235
      2 C         140.3458  139.8175  157.5491 C.2     1  UNL1        0.1026
      3 C         140.1260  139.7707  159.0322 C.3     1  UNL1        0.1481
      4 O         138.7955  139.3470  159.5802 O.3     1  UNL1       -0.3789
      5 C         141.2367  140.1477  159.9672 C.3     1  UNL1        0.0450
      6 C         139.9062  139.7240  160.5152 C.3     1  UNL1        0.0068
      7 C         141.0169  140.1009  161.4503 C.2     1  UNL1       -0.0400
      8 C         139.6864  139.6772  161.9983 C.2     1  UNL1        0.0290
      9 C         139.4666  139.6304  163.4814 C.2     1  UNL1        0.1721
     10 O         138.1361  139.2067  164.0294 O.2     1  UNL1       -0.2914
     11 C         140.5773  140.0074  164.4164 C.3     1  UNL1        0.0627
     12 C         140.3574  139.9606  165.8996 C.3     1  UNL1        0.0173
     13 C         139.0270  139.5369  166.4475 C.3     1  UNL1        0.0010
     14 C         138.8072  139.4902  167.9306 C.3     1  UNL1        0.0000
     15 C         138.1186  139.2881  169.2478 C.3     1  UNL1        0.0000
     16 C         137.4574  139.0430  167.4531 C.3     1  UNL1        0.0000
     17 C         139.9179  139.8671  168.8656 C.3     1  UNL1        0.0005
     18 C         141.2483  140.2908  168.3177 C.3     1  UNL1        0.0106
     19 C         141.4681  140.3376  166.8346 C.3     1  UNL1        0.0900
     20 C         142.7986  140.7613  166.2866 C.3     1  UNL1        0.0106
     21 C         143.0184  140.8080  164.8035 C.3     1  UNL1        0.0013
     22 C         141.9077  140.4311  163.8685 C.3     1  UNL1        0.0100
     23 C         143.2382  140.8548  163.3204 C.3     1  UNL1        0.0007
     24 C         142.1276  140.4779  162.3853 C.3     1  UNL1        0.0157
     25 C         142.3473  140.5246  160.9023 C.3     1  UNL1        0.0041
     26 C         143.4580  140.9016  161.8374 C.3     1  UNL1        0.0038
     27 C         143.6778  140.9483  160.3543 C.3     1  UNL1        0.0011
     28 C         142.5671  140.5714  159.4193 C.3     1  UNL1        0.0127
     29 C         142.7870  140.6182  157.9361 C.3     1  UNL1        0.0514
     30 C         143.4755  140.8202  156.6189 C.3     1  UNL1        0.0075
     31 C         144.1367  141.0653  158.4137 C.3     1  UNL1        0.0075
     32 H         138.1952  139.1395  158.8471 H       1  UNL1        0.2108
     33 C         139.2351  139.4406  156.6141 C.1     1  UNL1        0.1012
     34 N         138.1244  139.0636  155.6790 N.1     1  UNL1       -0.1910
     35 C         142.5788  140.7145  167.7697 C.2     1  UNL1        0.3160
     36 O         143.3639  139.6459  168.4710 O.2     1  UNL1       -0.2501
     37 O         142.9043  142.1599  168.0034 O.3     1  UNL1       -0.4444
     38 C         143.4134  142.6071  169.3416 C.3     1  UNL1        0.2556
     39 O         141.8961  140.2880  155.5180 O.2     1  UNL1       -0.4745
     40 C         141.6093  139.0782  154.6789 C.3     1  UNL1        0.2315
     41 C         143.5033  135.1273  155.7054 C.ar    1  UNL1        0.0503
     42 C         144.3652  136.3268  155.4438 C.ar    1  UNL1        0.0145
     43 C         143.7339  137.6438  155.1016 C.ar    1  UNL1        0.0006
     44 C         142.2407  137.7612  155.0211 C.ar    1  UNL1        0.0212
     45 C         141.3788  136.5618  155.2826 C.ar    1  UNL1        0.0006
     46 C         142.0100  135.2449  155.6248 C.ar    1  UNL1        0.0145
     47 C         144.2181  133.3680  157.4783 C.2     1  UNL1        0.2262
     48 O         143.6704  134.2425  158.5670 O.2     1  UNL1       -0.2748
     49 N         144.1346  133.8104  156.0475 N.am    1  UNL1       -0.2839
     50 H         144.4941  133.2364  155.3330 H       1  UNL1        0.1549
     51 C         144.8495  132.0510  157.8206 C.3     1  UNL1        0.0873
     52 C         144.7458  130.8989  156.8656 C.3     1  UNL1        0.0365
     53 C         143.4656  130.1242  156.7613 C.3     1  UNL1        0.1517
     54 N         143.1611  129.0417  157.7540 N.3     1  UNL1       -0.3134
     55 H         142.2570  128.6235  157.5343 H       1  UNL1        0.1193
     56 H         143.1325  129.4395  158.6928 H       1  UNL1        0.1193
     57 C         142.4900  130.4319  155.6642 C.2     1  UNL1        0.3312
     58 O         142.7237  131.6058  154.7602 O.2     1  UNL1       -0.2486
     59 C         140.0769  130.1065  154.7582 C.3     1  UNL1        0.2556
     60 O         141.2807  129.5657  155.4712 O.3     1  UNL1       -0.4435
@<TRIPOS>BOND
     1    59    60    1
     2    60    57    1
     3    57    58    2
     4    57    53    1
     5    53    54    1
     6    53    52    1
     7    52    51    1
     8    51    47    1
     9    47    48    2
    10    47    49   am
    11    49    41    1
    12    41    42   ar
    13    42    43   ar
    14    43    44   ar
    15    44    40    1
    16    40    39    1
    17    39     1    1
    18     1     2    2
    19     2    33    1
    20    33    34    3
    21     2     3    1
    22     3     4    1
    23     3     5    1
    24     5     6    1
    25     5     7    1
    26     7     8    2
    27     8     9    1
    28     9    10    2
    29    11     9    1
    30    11    12    1
    31    12    13    1
    32    13    14    1
    33    14    15    1
    34    14    16    1
    35    14    17    1
    36    17    18    1
    37    18    19    1
    38    19    35    1
    39    35    36    2
    40    35    37    1
    41    37    38    1
    42    19    20    1
    43    20    21    1
    44    21    22    1
    45    22    23    1
    46    22    24    1
    47    24    25    1
    48    24    26    1
    49    26    27    1
    50    28    27    1
    51    28    29    1
    52    29    30    1
    53    29    31    1
    54    44    45   ar
    55    45    46   ar
    56    46    41   ar
    57    29     1    1
    58    28     5    1
    59    24     7    1
    60    22    11    1
    61    19    12    1
    62    54    55    1
    63    54    56    1
    64    49    50    1
    65     4    32    1
@<TRIPOS>MOLECULE
*****
 60 65 0 0 0
SMALL
GASTEIGER

@<TRIPOS>ATOM
      1 C         141.2701  140.9509  156.3976 C.2     1  UNL1        0.1235
      2 C         142.0929  140.2828  157.4591 C.2     1  UNL1        0.1026
      3 C         142.3692  138.8107  157.3784 C.3     1  UNL1        0.1481
      4 O         143.1919  138.1427  158.4399 O.3     1  UNL1       -0.3789
      5 C         141.8226  138.0066  156.2362 C.3     1  UNL1        0.0450
      6 C         142.6454  137.3386  157.2977 C.3     1  UNL1        0.0068
      7 C         142.0988  136.5345  156.1555 C.2     1  UNL1       -0.0400
      8 C         142.9217  135.8664  157.2170 C.2     1  UNL1        0.0290
      9 C         143.1979  134.3943  157.1363 C.2     1  UNL1        0.1721
     10 O         144.0207  133.7263  158.1978 O.2     1  UNL1       -0.2914
     11 C         142.6513  133.5902  155.9941 C.3     1  UNL1        0.0627
     12 C         142.9276  132.1180  155.9134 C.3     1  UNL1        0.0173
     13 C         143.7504  131.4500  156.9749 C.3     1  UNL1        0.0010
     14 C         144.0266  129.9779  156.8942 C.3     1  UNL1        0.0000
     15 C         144.5566  128.6215  157.2535 C.3     1  UNL1        0.0000
     16 C         144.7572  130.3109  158.1612 C.3     1  UNL1        0.0000
     17 C         143.4801  129.1738  155.7520 C.3     1  UNL1        0.0005
     18 C         142.6573  129.8418  154.6905 C.3     1  UNL1        0.0106
     19 C         142.3811  131.3139  154.7712 C.3     1  UNL1        0.0900
     20 C         141.5583  131.9819  153.7097 C.3     1  UNL1        0.0106
     21 C         141.2820  133.4540  153.7904 C.3     1  UNL1        0.0013
     22 C         141.8286  134.2581  154.9326 C.3     1  UNL1        0.0100
     23 C         141.0058  134.9262  153.8711 C.3     1  UNL1        0.0007
     24 C         141.5523  135.7303  155.0133 C.3     1  UNL1        0.0157
     25 C         141.2761  137.2024  155.0940 C.3     1  UNL1        0.0041
     26 C         140.7295  136.3983  153.9518 C.3     1  UNL1        0.0038
     27 C         140.4533  137.8704  154.0325 C.3     1  UNL1        0.0011
     28 C         140.9998  138.6745  155.1747 C.3     1  UNL1        0.0127
     29 C         140.7236  140.1467  155.2554 C.3     1  UNL1        0.0514
     30 C         140.1936  141.5032  154.8961 C.3     1  UNL1        0.0075
     31 C         139.9930  139.8137  153.9884 C.3     1  UNL1        0.0075
     32 H         143.4644  138.8000  159.0992 H       1  UNL1        0.2108
     33 C         142.6395  141.0869  158.6014 C.1     1  UNL1        0.1012
     34 N         143.1860  141.8911  159.7436 N.1     1  UNL1       -0.1910
     35 C         141.8345  130.5097  153.6290 C.2     1  UNL1        0.3160
     36 O         142.6443  130.3371  152.3781 O.2     1  UNL1       -0.2501
     37 O         140.4783  129.8782  153.7376 O.3     1  UNL1       -0.4444
     38 C         139.7826  129.3790  152.5060 C.3     1  UNL1        0.2556
     39 O         140.9939  142.4230  156.4783 O.2     1  UNL1       -0.4745
     40 C         139.7648  142.9179  157.1814 C.3     1  UNL1        0.2315
     41 C         138.4485  140.9978  161.0325 C.ar    1  UNL1        0.0503
     42 C         138.1162  140.3515  159.7203 C.ar    1  UNL1        0.0145
     43 C         138.5550  140.9915  158.4366 C.ar    1  UNL1        0.0006
     44 C         139.3260  142.2778  158.4651 C.ar    1  UNL1        0.0212
     45 C         139.6583  142.9242  159.7773 C.ar    1  UNL1        0.0006
     46 C         139.2196  142.2841  161.0610 C.ar    1  UNL1        0.0145
     47 C         138.9515  139.4660  163.0697 C.2     1  UNL1        0.2262
     48 O         140.3319  139.2142  162.5396 O.2     1  UNL1       -0.2748
     49 N         138.0098  140.3578  162.3162 N.am    1  UNL1       -0.2839
     50 H         137.1037  140.5230  162.6641 H       1  UNL1        0.1549
     51 C         138.5127  138.8259  164.3535 C.3     1  UNL1        0.0873
     52 C         138.1192  139.6807  165.5216 C.3     1  UNL1        0.0365
     53 C         138.2164  139.1362  166.9158 C.3     1  UNL1        0.1517
     54 N         137.3200  138.0133  167.3467 N.3     1  UNL1       -0.3134
     55 H         137.5206  137.7713  168.3170 H       1  UNL1        0.1193
     56 H         137.4838  137.2004  166.7527 H       1  UNL1        0.1193
     57 C         139.2101  139.7145  167.8793 C.2     1  UNL1        0.3312
     58 O         138.8601  139.8400  169.3325 O.2     1  UNL1       -0.2486
     59 C         141.7839  139.8739  168.1961 C.3     1  UNL1        0.2556
     60 O         140.5536  140.1674  167.3896 O.3     1  UNL1       -0.4435
@<TRIPOS>BOND
     1    59    60    1
     2    60    57    1
     3    57    58    2
     4    57    53    1
     5    53    54    1
     6    53    52    1
     7    52    51    1
     8    51    47    1
     9    47    48    2
    10    47    49   am
    11    49    41    1
    12    41    42   ar
    13    42    43   ar
    14    43    44   ar
    15    44    40    1
    16    40    39    1
    17    39     1    1
    18     1     2    2
    19     2    33    1
    20    33    34    3
    21     2     3    1
    22     3     4    1
    23     3     5    1
    24     5     6    1
    25     5     7    1
    26     7     8    2
    27     8     9    1
    28     9    10    2
    29    11     9    1
    30    11    12    1
    31    12    13    1
    32    13    14    1
    33    14    15    1
    34    14    16    1
    35    14    17    1
    36    17    18    1
    37    18    19    1
    38    19    35    1
    39    35    36    2
    40    35    37    1
    41    37    38    1
    42    19    20    1
    43    20    21    1
    44    21    22    1
    45    22    23    1
    46    22    24    1
    47    24    25    1
    48    24    26    1
    49    26    27    1
    50    28    27    1
    51    28    29    1
    52    29    30    1
    53    29    31    1
    54    44    45   ar
    55    45    46   ar
    56    46    41   ar
    57    29     1    1
    58    28     5    1
    59    24     7    1
    60    22    11    1
    61    19    12    1
    62    54    55    1
    63    54    56    1
    64    49    50    1
    65     4    32    1
@<TRIPOS>MOLECULE
*****
 60 65 0 0 0
SMALL
GASTEIGER

@<TRIPOS>ATOM
      1 C         143.0611  137.1329  155.8195 C.2     1  UNL1        0.1235
      2 C         143.0117  136.2684  157.0444 C.2     1  UNL1        0.1026
      3 C         142.9663  136.8977  158.4052 C.3     1  UNL1        0.1481
      4 O         142.9169  136.0331  159.6300 O.3     1  UNL1       -0.3789
      5 C         142.9701  138.3915  158.5412 C.3     1  UNL1        0.0450
      6 C         142.9208  137.5270  159.7660 C.3     1  UNL1        0.0068
      7 C         142.9247  139.0208  159.9020 C.2     1  UNL1       -0.0400
      8 C         142.8753  138.1562  161.1269 C.2     1  UNL1        0.0290
      9 C         142.8298  138.7855  162.4877 C.2     1  UNL1        0.1721
     10 O         142.7805  137.9210  163.7126 O.2     1  UNL1       -0.2914
     11 C         142.8337  140.2794  162.6237 C.3     1  UNL1        0.0627
     12 C         142.7882  140.9087  163.9847 C.3     1  UNL1        0.0173
     13 C         142.7389  140.0441  165.2094 C.3     1  UNL1        0.0010
     14 C         142.6934  140.6734  166.5703 C.3     1  UNL1        0.0000
     15 C         142.6402  140.7991  168.0640 C.3     1  UNL1        0.0000
     16 C         142.6711  139.2233  166.9531 C.3     1  UNL1        0.0000
     17 C         142.6973  142.1673  166.7063 C.3     1  UNL1        0.0005
     18 C         142.7466  143.0318  165.4815 C.3     1  UNL1        0.0106
     19 C         142.7921  142.4025  164.1207 C.3     1  UNL1        0.0900
     20 C         142.8415  143.2670  162.8958 C.3     1  UNL1        0.0106
     21 C         142.8869  142.6377  161.5350 C.3     1  UNL1        0.0013
     22 C         142.8831  141.1439  161.3990 C.3     1  UNL1        0.0100
     23 C         142.9324  142.0084  160.1741 C.3     1  UNL1        0.0007
     24 C         142.9285  140.5146  160.0381 C.3     1  UNL1        0.0157
     25 C         142.9740  139.8853  158.6772 C.3     1  UNL1        0.0041
     26 C         142.9779  141.3791  158.8133 C.3     1  UNL1        0.0038
     27 C         143.0233  140.7498  157.4525 C.3     1  UNL1        0.0011
     28 C         143.0195  139.2560  157.3164 C.3     1  UNL1        0.0127
     29 C         143.0649  138.6267  155.9555 C.3     1  UNL1        0.0514
     30 C         143.1182  138.5010  154.4617 C.3     1  UNL1        0.0075
     31 C         143.0873  140.0768  155.5728 C.3     1  UNL1        0.0075
     32 H         142.9209  135.0995  159.3670 H       1  UNL1        0.2108
     33 C         143.0079  134.7745  156.9083 C.1     1  UNL1        0.1012
     34 N         143.0040  133.2807  156.7723 N.1     1  UNL1       -0.1910
     35 C         142.7960  143.8963  164.2567 C.2     1  UNL1        0.3160
     36 O         144.0966  144.6371  164.3551 O.2     1  UNL1       -0.2501
     37 O         141.4993  144.6493  164.2944 O.3     1  UNL1       -0.4444
     38 C         141.1642  145.6210  163.2019 C.3     1  UNL1        0.2556
     39 O         143.1065  136.5036  154.4587 O.2     1  UNL1       -0.4745
     40 C         141.9322  135.7169  153.9566 C.3     1  UNL1        0.2315
     41 C         137.7860  137.4454  154.2236 C.ar    1  UNL1        0.0503
     42 C         138.3724  137.1063  152.8853 C.ar    1  UNL1        0.0145
     43 C         139.7545  136.5301  152.7963 C.ar    1  UNL1        0.0006
     44 C         140.5501  136.2931  154.0456 C.ar    1  UNL1        0.0212
     45 C         139.9637  136.6322  155.3839 C.ar    1  UNL1        0.0006
     46 C         138.5817  137.2083  155.4730 C.ar    1  UNL1        0.0145
     47 C         136.2178  139.4943  154.5280 C.2     1  UNL1        0.2262
     48 O         137.4138  140.3909  154.6543 O.2     1  UNL1       -0.2748
     49 N         136.4039  138.0216  154.3127 N.am    1  UNL1       -0.2839
     50 H         135.6190  137.4331  154.2298 H       1  UNL1        0.1549
     51 C         134.8357  140.0705  154.6171 C.3     1  UNL1        0.0873
     52 C         134.2626  140.4418  155.9526 C.3     1  UNL1        0.0365
     53 C         133.1368  139.6396  156.5348 C.3     1  UNL1        0.1517
     54 N         133.3871  138.2465  157.0313 N.3     1  UNL1       -0.3134
     55 H         132.5177  137.8525  157.3911 H       1  UNL1        0.1193
     56 H         134.0832  138.2710  157.7764 H       1  UNL1        0.1193
     57 C         131.7607  140.2305  156.6205 C.2     1  UNL1        0.3312
     58 O         130.7958  139.7367  157.6573 O.2     1  UNL1       -0.2486
     59 C         129.8951  141.5707  155.4066 C.3     1  UNL1        0.2556
     60 O         131.3497  141.3151  155.6694 O.3     1  UNL1       -0.4435
@<TRIPOS>BOND
     1    59    60    1
     2    60    57    1
     3    57    58    2
     4    57    53    1
     5    53    54    1
     6    53    52    1
     7    52    51    1
     8    51    47    1
     9    47    48    2
    10    47    49   am
    11    49    41    1
    12    41    42   ar
    13    42    43   ar
    14    43    44   ar
    15    44    40    1
    16    40    39    1
    17    39     1    1
    18     1     2    2
    19     2    33    1
    20    33    34    3
    21     2     3    1
    22     3     4    1
    23     3     5    1
    24     5     6    1
    25     5     7    1
    26     7     8    2
    27     8     9    1
    28     9    10    2
    29    11     9    1
    30    11    12    1
    31    12    13    1
    32    13    14    1
    33    14    15    1
    34    14    16    1
    35    14    17    1
    36    17    18    1
    37    18    19    1
    38    19    35    1
    39    35    36    2
    40    35    37    1
    41    37    38    1
    42    19    20    1
    43    20    21    1
    44    21    22    1
    45    22    23    1
    46    22    24    1
    47    24    25    1
    48    24    26    1
    49    26    27    1
    50    28    27    1
    51    28    29    1
    52    29    30    1
    53    29    31    1
    54    44    45   ar
    55    45    46   ar
    56    46    41   ar
    57    29     1    1
    58    28     5    1
    59    24     7    1
    60    22    11    1
    61    19    12    1
    62    54    55    1
    63    54    56    1
    64    49    50    1
    65     4    32    1
@<TRIPOS>MOLECULE
*****
 60 65 0 0 0
SMALL
GASTEIGER

@<TRIPOS>ATOM
      1 C         142.0386  140.7558  155.0253 C.2     1  UNL1        0.1235
      2 C         142.5916  140.1651  156.2884 C.2     1  UNL1        0.1026
      3 C         142.8140  138.6851  156.3895 C.3     1  UNL1        0.1481
      4 O         143.3670  138.0945  157.6526 O.3     1  UNL1       -0.3789
      5 C         142.4833  137.7959  155.2277 C.3     1  UNL1        0.0450
      6 C         143.0363  137.2052  156.4907 C.3     1  UNL1        0.0068
      7 C         142.7056  136.3159  155.3289 C.2     1  UNL1       -0.0400
      8 C         143.2587  135.7252  156.5919 C.2     1  UNL1        0.0290
      9 C         143.4810  134.2452  156.6931 C.2     1  UNL1        0.1721
     10 O         144.0341  133.6545  157.9562 O.2     1  UNL1       -0.2914
     11 C         143.1504  133.3560  155.5313 C.3     1  UNL1        0.0627
     12 C         143.3727  131.8759  155.6325 C.3     1  UNL1        0.0173
     13 C         143.9257  131.2853  156.8955 C.3     1  UNL1        0.0010
     14 C         144.1481  129.8053  156.9967 C.3     1  UNL1        0.0000
     15 C         144.5315  128.4736  157.5706 C.3     1  UNL1        0.0000
     16 C         144.6119  130.2320  158.3579 C.3     1  UNL1        0.0000
     17 C         143.8174  128.9161  155.8349 C.3     1  UNL1        0.0005
     18 C         143.2644  129.5067  154.5719 C.3     1  UNL1        0.0106
     19 C         143.0421  130.9867  154.4707 C.3     1  UNL1        0.0900
     20 C         142.4890  131.5774  153.2076 C.3     1  UNL1        0.0106
     21 C         142.2667  133.0574  153.1064 C.3     1  UNL1        0.0013
     22 C         142.5974  133.9466  154.2683 C.3     1  UNL1        0.0100
     23 C         142.0443  134.5374  153.0052 C.3     1  UNL1        0.0007
     24 C         142.3750  135.4267  154.1671 C.3     1  UNL1        0.0157
     25 C         142.1526  136.9066  154.0659 C.3     1  UNL1        0.0041
     26 C         141.8220  136.0173  152.9040 C.3     1  UNL1        0.0038
     27 C         141.5996  137.4973  152.8029 C.3     1  UNL1        0.0011
     28 C         141.9303  138.3865  153.9647 C.3     1  UNL1        0.0127
     29 C         141.7079  139.8666  153.8635 C.3     1  UNL1        0.0514
     30 C         141.3245  141.1983  153.2896 C.3     1  UNL1        0.0075
     31 C         141.2441  139.4398  152.5024 C.3     1  UNL1        0.0075
     32 H         143.5243  138.8011  158.2981 H       1  UNL1        0.2108
     33 C         142.9223  141.0544  157.4502 C.1     1  UNL1        0.1012
     34 N         143.2529  141.9436  158.6120 N.1     1  UNL1       -0.1910
     35 C         142.7114  130.0974  153.3089 C.2     1  UNL1        0.3160
     36 O         143.7662  129.7635  152.2959 O.2     1  UNL1       -0.2501
     37 O         141.3260  129.5420  153.1599 O.3     1  UNL1       -0.4444
     38 C         141.0154  128.5909  152.0424 C.3     1  UNL1        0.2556
     39 O         141.8162  142.2358  154.9241 O.2     1  UNL1       -0.4745
     40 C         140.5409  142.8391  155.4334 C.3     1  UNL1        0.2315
     41 C         140.3521  144.5116  159.6069 C.ar    1  UNL1        0.0503
     42 C         141.2461  145.1474  158.5838 C.ar    1  UNL1        0.0145
     43 C         141.3089  144.5899  157.1926 C.ar    1  UNL1        0.0006
     44 C         140.4780  143.3966  156.8246 C.ar    1  UNL1        0.0212
     45 C         139.5841  142.7608  157.8476 C.ar    1  UNL1        0.0006
     46 C         139.5211  143.3182  159.2387 C.ar    1  UNL1        0.0145
     47 C         141.2107  144.5440  162.0587 C.2     1  UNL1        0.2262
     48 O         142.1951  143.4615  161.7283 O.2     1  UNL1       -0.2748
     49 N         140.2892  145.0690  160.9980 N.am    1  UNL1       -0.2839
     50 H         139.6431  145.7795  161.2148 H       1  UNL1        0.1549
     51 C         141.1478  145.1014  163.4499 C.3     1  UNL1        0.0873
     52 C         139.9714  144.7945  164.3283 C.3     1  UNL1        0.0365
     53 C         139.2009  143.5225  164.1327 C.3     1  UNL1        0.1517
     54 N         139.6064  142.2794  164.8677 N.3     1  UNL1       -0.3134
     55 H         138.9779  141.5161  164.6174 H       1  UNL1        0.1193
     56 H         139.5550  142.4466  165.8726 H       1  UNL1        0.1193
     57 C         138.0249  143.4936  163.2019 C.2     1  UNL1        0.3312
     58 O         137.6457  144.7251  162.4341 O.2     1  UNL1       -0.2486
     59 C         137.6420  141.2102  162.0230 C.3     1  UNL1        0.2556
     60 O         137.2282  142.2332  163.0391 O.3     1  UNL1       -0.4435
@<TRIPOS>BOND
     1    59    60    1
     2    60    57    1
     3    57    58    2
     4    57    53    1
     5    53    54    1
     6    53    52    1
     7    52    51    1
     8    51    47    1
     9    47    48    2
    10    47    49   am
    11    49    41    1
    12    41    42   ar
    13    42    43   ar
    14    43    44   ar
    15    44    40    1
    16    40    39    1
    17    39     1    1
    18     1     2    2
    19     2    33    1
    20    33    34    3
    21     2     3    1
    22     3     4    1
    23     3     5    1
    24     5     6    1
    25     5     7    1
    26     7     8    2
    27     8     9    1
    28     9    10    2
    29    11     9    1
    30    11    12    1
    31    12    13    1
    32    13    14    1
    33    14    15    1
    34    14    16    1
    35    14    17    1
    36    17    18    1
    37    18    19    1
    38    19    35    1
    39    35    36    2
    40    35    37    1
    41    37    38    1
    42    19    20    1
    43    20    21    1
    44    21    22    1
    45    22    23    1
    46    22    24    1
    47    24    25    1
    48    24    26    1
    49    26    27    1
    50    28    27    1
    51    28    29    1
    52    29    30    1
    53    29    31    1
    54    44    45   ar
    55    45    46   ar
    56    46    41   ar
    57    29     1    1
    58    28     5    1
    59    24     7    1
    60    22    11    1
    61    19    12    1
    62    54    55    1
    63    54    56    1
    64    49    50    1
    65     4    32    1
@<TRIPOS>MOLECULE
*****
 60 65 0 0 0
SMALL
GASTEIGER

@<TRIPOS>ATOM
      1 C         144.5192  140.5588  156.5745 C.2     1  UNL1        0.1235
      2 C         143.5035  139.4823  156.8189 C.2     1  UNL1        0.1026
      3 C         142.8225  139.3822  158.1516 C.3     1  UNL1        0.1481
      4 O         141.8069  138.3058  158.3959 O.3     1  UNL1       -0.3789
      5 C         143.1571  140.3587  159.2400 C.3     1  UNL1        0.0450
      6 C         142.1415  139.2822  159.4843 C.3     1  UNL1        0.0068
      7 C         142.4762  140.2586  160.5727 C.2     1  UNL1       -0.0400
      8 C         141.4605  139.1821  160.8171 C.2     1  UNL1        0.0290
      9 C         140.7795  139.0821  162.1499 C.2     1  UNL1        0.1721
     10 O         139.7639  138.0056  162.3942 O.2     1  UNL1       -0.2914
     11 C         141.1142  140.0585  163.2383 C.3     1  UNL1        0.0627
     12 C         140.4331  139.9584  164.5711 C.3     1  UNL1        0.0173
     13 C         139.4175  138.8819  164.8154 C.3     1  UNL1        0.0010
     14 C         138.7366  138.7819  166.1481 C.3     1  UNL1        0.0000
     15 C         137.8300  138.2825  167.2338 C.3     1  UNL1        0.0000
     16 C         138.0870  137.6320  165.4368 C.3     1  UNL1        0.0000
     17 C         139.0712  139.7583  167.2365 C.3     1  UNL1        0.0005
     18 C         140.0868  140.8348  166.9922 C.3     1  UNL1        0.0106
     19 C         140.7677  140.9348  165.6595 C.3     1  UNL1        0.0900
     20 C         141.7834  142.0113  165.4151 C.3     1  UNL1        0.0106
     21 C         142.4644  142.1114  164.0824 C.3     1  UNL1        0.0013
     22 C         142.1298  141.1350  162.9939 C.3     1  UNL1        0.0100
     23 C         143.1454  142.2115  162.7496 C.3     1  UNL1        0.0007
     24 C         142.8108  141.2350  161.6612 C.3     1  UNL1        0.0157
     25 C         143.4918  141.3351  160.3284 C.3     1  UNL1        0.0041
     26 C         143.8264  142.3115  161.4168 C.3     1  UNL1        0.0038
     27 C         144.5074  142.4116  160.0841 C.3     1  UNL1        0.0011
     28 C         144.1727  141.4351  158.9957 C.3     1  UNL1        0.0127
     29 C         144.8538  141.5352  157.6629 C.3     1  UNL1        0.0514
     30 C         145.7603  142.0346  156.5772 C.3     1  UNL1        0.0075
     31 C         145.5032  142.6850  158.3742 C.3     1  UNL1        0.0075
     32 H         141.7099  137.7653  157.5963 H       1  UNL1        0.2108
     33 C         143.1689  138.5059  155.7305 C.1     1  UNL1        0.1012
     34 N         142.8342  137.5295  154.6421 N.1     1  UNL1       -0.1910
     35 C         141.1024  141.9112  166.7479 C.2     1  UNL1        0.3160
     36 O         140.2858  143.1586  166.9136 O.2     1  UNL1       -0.2501
     37 O         142.2535  141.6404  167.6706 O.3     1  UNL1       -0.4444
     38 C         142.4212  142.4541  168.9195 C.3     1  UNL1        0.2556
     39 O         145.2001  140.6588  155.2418 O.2     1  UNL1       -0.4745
     40 C         144.4249  141.0960  154.0344 C.3     1  UNL1        0.2315
     41 C         141.5677  144.5603  154.3280 C.ar    1  UNL1        0.0503
     42 C         143.0354  144.8118  154.1481 C.ar    1  UNL1        0.0145
     43 C         143.9878  143.6571  154.0503 C.ar    1  UNL1        0.0006
     44 C         143.4725  142.2508  154.1323 C.ar    1  UNL1        0.0212
     45 C         142.0047  141.9992  154.3122 C.ar    1  UNL1        0.0006
     46 C         141.0523  143.1539  154.4101 C.ar    1  UNL1        0.0145
     47 C         140.1481  146.1899  155.7698 C.2     1  UNL1        0.2262
     48 O         140.6332  145.5101  157.0158 O.2     1  UNL1       -0.2748
     49 N         140.6153  145.7149  154.4259 N.am    1  UNL1       -0.2839
     50 H         140.2968  146.1611  153.6081 H       1  UNL1        0.1549
     51 C         139.1956  147.3446  155.8678 C.3     1  UNL1        0.0873
     52 C         139.3001  148.4870  154.9014 C.3     1  UNL1        0.0365
     53 C         138.8171  149.8508  155.2973 C.3     1  UNL1        0.1517
     54 N         137.7186  149.9930  156.3088 N.3     1  UNL1       -0.3134
     55 H         137.5188  150.9822  156.4568 H       1  UNL1        0.1193
     56 H         138.0106  149.5697  157.1897 H       1  UNL1        0.1193
     57 C         139.4327  151.0724  154.6818 C.2     1  UNL1        0.3312
     58 O         140.9223  151.1682  154.5340 O.2     1  UNL1       -0.2486
     59 C         138.4469  153.4505  155.0322 C.3     1  UNL1        0.2556
     60 O         138.5587  152.1981  154.2142 O.3     1  UNL1       -0.4435
@<TRIPOS>BOND
     1    59    60    1
     2    60    57    1
     3    57    58    2
     4    57    53    1
     5    53    54    1
     6    53    52    1
     7    52    51    1
     8    51    47    1
     9    47    48    2
    10    47    49   am
    11    49    41    1
    12    41    42   ar
    13    42    43   ar
    14    43    44   ar
    15    44    40    1
    16    40    39    1
    17    39     1    1
    18     1     2    2
    19     2    33    1
    20    33    34    3
    21     2     3    1
    22     3     4    1
    23     3     5    1
    24     5     6    1
    25     5     7    1
    26     7     8    2
    27     8     9    1
    28     9    10    2
    29    11     9    1
    30    11    12    1
    31    12    13    1
    32    13    14    1
    33    14    15    1
    34    14    16    1
    35    14    17    1
    36    17    18    1
    37    18    19    1
    38    19    35    1
    39    35    36    2
    40    35    37    1
    41    37    38    1
    42    19    20    1
    43    20    21    1
    44    21    22    1
    45    22    23    1
    46    22    24    1
    47    24    25    1
    48    24    26    1
    49    26    27    1
    50    28    27    1
    51    28    29    1
    52    29    30    1
    53    29    31    1
    54    44    45   ar
    55    45    46   ar
    56    46    41   ar
    57    29     1    1
    58    28     5    1
    59    24     7    1
    60    22    11    1
    61    19    12    1
    62    54    55    1
    63    54    56    1
    64    49    50    1
    65     4    32    1
@<TRIPOS>MOLECULE
*****
 60 65 0 0 0
SMALL
GASTEIGER

@<TRIPOS>ATOM
      1 C         144.3000  139.3969  155.7948 C.2     1  UNL1        0.1235
      2 C         143.6759  138.1741  156.3994 C.2     1  UNL1        0.1026
      3 C         142.9601  138.2694  157.7141 C.3     1  UNL1        0.1481
      4 O         142.3361  137.0467  158.3187 O.3     1  UNL1       -0.3789
      5 C         142.8682  139.5875  158.4243 C.3     1  UNL1        0.0450
      6 C         142.2443  138.3647  159.0288 C.3     1  UNL1        0.0068
      7 C         142.1524  139.6828  159.7389 C.2     1  UNL1       -0.0400
      8 C         141.5284  138.4600  160.3436 C.2     1  UNL1        0.0290
      9 C         140.8125  138.5553  161.6582 C.2     1  UNL1        0.1721
     10 O         140.1885  137.3325  162.2629 O.2     1  UNL1       -0.2914
     11 C         140.7206  139.8734  162.3684 C.3     1  UNL1        0.0627
     12 C         140.0047  139.9687  163.6831 C.3     1  UNL1        0.0173
     13 C         139.3808  138.7459  164.2877 C.3     1  UNL1        0.0010
     14 C         138.6649  138.8412  165.6024 C.3     1  UNL1        0.0000
     15 C         137.8872  138.4291  166.8169 C.3     1  UNL1        0.0000
     16 C         138.4867  137.3800  165.3141 C.3     1  UNL1        0.0000
     17 C         138.5731  140.1593  166.3125 C.3     1  UNL1        0.0005
     18 C         139.1970  141.3820  165.7079 C.3     1  UNL1        0.0106
     19 C         139.9129  141.2867  164.3933 C.3     1  UNL1        0.0900
     20 C         140.5369  142.5095  163.7886 C.3     1  UNL1        0.0106
     21 C         141.2527  142.4142  162.4739 C.3     1  UNL1        0.0013
     22 C         141.3446  141.0961  161.7638 C.3     1  UNL1        0.0100
     23 C         141.9686  142.3189  161.1592 C.3     1  UNL1        0.0007
     24 C         142.0605  141.0008  160.4491 C.3     1  UNL1        0.0157
     25 C         142.7763  140.9055  159.1344 C.3     1  UNL1        0.0041
     26 C         142.6845  142.2236  159.8445 C.3     1  UNL1        0.0038
     27 C         143.4003  142.1283  158.5298 C.3     1  UNL1        0.0011
     28 C         143.4922  140.8102  157.8197 C.3     1  UNL1        0.0127
     29 C         144.2081  140.7149  156.5050 C.3     1  UNL1        0.0514
     30 C         144.9858  141.1271  155.2904 C.3     1  UNL1        0.0075
     31 C         144.3863  142.1761  156.7933 C.3     1  UNL1        0.0075
     32 H         142.4860  136.2856  157.7362 H       1  UNL1        0.2108
     33 C         143.7678  136.8560  155.6893 C.1     1  UNL1        0.1012
     34 N         143.8597  135.5380  154.9792 N.1     1  UNL1       -0.1910
     35 C         139.8210  142.6048  165.1034 C.2     1  UNL1        0.3160
     36 O         140.8955  143.0142  166.0667 O.2     1  UNL1       -0.2501
     37 O         138.6547  143.5134  164.8503 O.3     1  UNL1       -0.4444
     38 C         138.6543  144.9062  165.4071 C.3     1  UNL1        0.2556
     39 O         145.0158  139.3016  154.4801 O.2     1  UNL1       -0.4745
     40 C         144.2638  139.5130  153.1997 C.3     1  UNL1        0.2315
     41 C         139.7746  139.2033  153.1493 C.ar    1  UNL1        0.0503
     42 C         140.4327  140.5074  153.4906 C.ar    1  UNL1        0.0145
     43 C         141.9291  140.6106  153.5074 C.ar    1  UNL1        0.0006
     44 C         142.7674  139.4098  153.1829 C.ar    1  UNL1        0.0212
     45 C         142.1093  138.1058  152.8416 C.ar    1  UNL1        0.0006
     46 C         140.6130  138.0025  152.8248 C.ar    1  UNL1        0.0145
     47 C         137.5336  138.7917  154.3975 C.2     1  UNL1        0.2262
     48 O         138.2852  138.5866  155.6793 O.2     1  UNL1       -0.2748
     49 N         138.2783  139.1000  153.1325 N.am    1  UNL1       -0.2839
     50 H         137.7850  139.2346  152.2912 H       1  UNL1        0.1549
     51 C         136.0372  138.6884  154.3808 C.3     1  UNL1        0.0873
     52 C         135.2014  139.9269  154.2490 C.3     1  UNL1        0.0365
     53 C         134.8294  140.7141  155.4704 C.3     1  UNL1        0.1517
     54 N         135.4833  142.0373  155.7378 N.3     1  UNL1       -0.3134
     55 H         135.1141  142.4302  156.6037 H       1  UNL1        0.1193
     56 H         135.2894  142.6747  154.9654 H       1  UNL1        0.1193
     57 C         133.8034  140.1781  156.4244 C.2     1  UNL1        0.3312
     58 O         134.2378  139.4441  157.6584 O.2     1  UNL1       -0.2486
     59 C         131.8890  141.5448  155.3210 C.3     1  UNL1        0.2556
     60 O         132.3431  140.3761  156.1446 O.3     1  UNL1       -0.4435
@<TRIPOS>BOND
     1    59    60    1
     2    60    57    1
     3    57    58    2
     4    57    53    1
     5    53    54    1
     6    53    52    1
     7    52    51    1
     8    51    47    1
     9    47    48    2
    10    47    49   am
    11    49    41    1
    12    41    42   ar
    13    42    43   ar
    14    43    44   ar
    15    44    40    1
    16    40    39    1
    17    39     1    1
    18     1     2    2
    19     2    33    1
    20    33    34    3
    21     2     3    1
    22     3     4    1
    23     3     5    1
    24     5     6    1
    25     5     7    1
    26     7     8    2
    27     8     9    1
    28     9    10    2
    29    11     9    1
    30    11    12    1
    31    12    13    1
    32    13    14    1
    33    14    15    1
    34    14    16    1
    35    14    17    1
    36    17    18    1
    37    18    19    1
    38    19    35    1
    39    35    36    2
    40    35    37    1
    41    37    38    1
    42    19    20    1
    43    20    21    1
    44    21    22    1
    45    22    23    1
    46    22    24    1
    47    24    25    1
    48    24    26    1
    49    26    27    1
    50    28    27    1
    51    28    29    1
    52    29    30    1
    53    29    31    1
    54    44    45   ar
    55    45    46   ar
    56    46    41   ar
    57    29     1    1
    58    28     5    1
    59    24     7    1
    60    22    11    1
    61    19    12    1
    62    54    55    1
    63    54    56    1
    64    49    50    1
    65     4    32    1
