@<TRIPOS>MOLECULE
*****
 34 39 0 0 0
SMALL
GASTEIGER

@<TRIPOS>ATOM
      1 N         139.2353  141.8928  162.9135 N.pl3   1  UNL1       -0.3033
      2 H         138.3933  141.4437  162.6714 H       1  UNL1        0.1496
      3 C         140.2521  141.1778  163.7531 C.ar    1  UNL1        0.2365
      4 N         140.4732  141.3699  165.2242 N.ar    1  UNL1       -0.1798
      5 C         141.5842  140.4561  165.6493 C.ar    1  UNL1        0.2234
      6 N         142.0497  139.6992  164.4408 N.ar    1  UNL1       -0.2192
      7 N         141.2265  140.1453  163.2690 N.ar    1  UNL1       -0.1317
      8 C         143.1631  138.7016  164.5637 C.3     1  UNL1        0.1322
      9 C         143.8109  138.4609  165.8949 C.3     1  UNL1        0.0483
     10 C         143.3454  139.2178  167.1034 C.3     1  UNL1        0.1005
     11 N         142.2320  140.2154  166.9806 N.pl3   1  UNL1       -0.2573
     12 C         141.7664  140.9723  168.1890 C.ar    1  UNL1        0.0585
     13 C         140.3591  140.8074  168.6810 C.ar    1  UNL1        0.0447
     14 C         139.8935  141.5643  169.8895 C.ar    1  UNL1        0.1436
     15 F         138.4861  141.3994  170.3815 F       1  UNL1       -0.2041
     16 C         140.8353  142.4861  170.6059 C.ar    1  UNL1        0.0593
     17 C         142.2426  142.6510  170.1139 C.ar    1  UNL1        0.1436
     18 F         143.1845  143.5728  170.8303 F       1  UNL1       -0.2041
     19 C         142.7082  141.8941  168.9054 C.ar    1  UNL1        0.0447
     20 N         139.3234  141.9871  162.8242 N.pl3   1  UNL1       -0.2931
     21 C         138.4727  143.1192  163.3188 C.3     1  UNL1        0.0937
     22 C         138.7387  144.5185  162.8482 C.3     1  UNL1        0.0378
     23 C         139.3426  145.6949  162.1401 C.3     1  UNL1        0.0035
     24 C         140.4784  145.1954  161.2971 C.3     1  UNL1        0.0035
     25 C         140.5765  143.7103  161.4843 C.3     1  UNL1        0.0378
     26 C         140.4400  142.2542  161.8588 C.3     1  UNL1        0.0937
     27 C         139.5013  143.2919  162.4429 C.3     1  UNL1        0.0750
     28 C         137.8405  138.7044  166.5692 C.3     1  UNL1        0.0522
     29 C         138.3160  138.9466  165.1673 C.ar    1  UNL1        0.0639
     30 C         138.5819  140.3458  164.6967 C.ar    1  UNL1        0.0491
     31 C         139.0574  140.5879  163.2948 C.ar    1  UNL1        0.1346
     32 N         139.2670  139.4308  162.3636 N.ar    1  UNL1       -0.2090
     33 C         139.0011  138.0316  162.8341 C.ar    1  UNL1        0.1997
     34 N         138.5256  137.7895  164.2360 N.ar    1  UNL1       -0.2283
@<TRIPOS>BOND
     1    28    29    1
     2    29    30   ar
     3    30    31   ar
     4    31    20    1
     5    20    21    1
     6    22    21    1
     7    22    23    1
     8    23    24    1
     9    25    24    1
    10    25    26    1
    11    25    27    1
    12    27     1    1
    13     1     3    1
    14     3     4   ar
    15     4     5   ar
    16     5     6   ar
    17     6     7   ar
    18     6     8    1
    19     8     9    1
    20     9    10    1
    21    10    11    1
    22    11    12    1
    23    12    13   ar
    24    13    14   ar
    25    14    15    1
    26    14    16   ar
    27    16    17   ar
    28    17    18    1
    29    17    19   ar
    30    31    32   ar
    31    32    33   ar
    32    33    34   ar
    33    34    29   ar
    34    26    20    1
    35     7     3   ar
    36    19    12   ar
    37    27    22    1
    38    11     5    1
    39     1     2    1
@<TRIPOS>MOLECULE
*****
 34 39 0 0 0
SMALL
GASTEIGER

@<TRIPOS>ATOM
      1 N         140.0004  139.3318  166.6601 N.pl3   1  UNL1       -0.3033
      2 H         140.2250  138.3773  166.5722 H       1  UNL1        0.1496
      3 C         139.6935  140.1458  165.4381 C.ar    1  UNL1        0.2365
      4 N         140.6514  141.0448  164.7141 N.ar    1  UNL1       -0.1798
      5 C         139.9248  141.6583  163.5541 C.ar    1  UNL1        0.2234
      6 N         138.5178  141.1384  163.5612 N.ar    1  UNL1       -0.2192
      7 N         138.3749  140.2036  164.7255 N.ar    1  UNL1       -0.1317
      8 C         137.5485  141.5833  162.5064 C.3     1  UNL1        0.1322
      9 C         137.9862  142.5481  161.4446 C.3     1  UNL1        0.0483
     10 C         139.3932  143.0680  161.4376 C.3     1  UNL1        0.1005
     11 N         140.3625  142.6231  162.4923 N.pl3   1  UNL1       -0.2573
     12 C         141.7695  143.1430  162.4853 C.ar    1  UNL1        0.0585
     13 C         142.2102  144.1285  163.5267 C.ar    1  UNL1        0.0447
     14 C         143.6172  144.6484  163.5197 C.ar    1  UNL1        0.1436
     15 F         144.0578  145.6339  164.5612 F       1  UNL1       -0.2041
     16 C         144.5835  144.1828  162.4712 C.ar    1  UNL1        0.0593
     17 C         144.1429  143.1974  161.4297 C.ar    1  UNL1        0.1436
     18 F         145.1092  142.7317  160.3812 F       1  UNL1       -0.2041
     19 C         142.7359  142.6775  161.4368 C.ar    1  UNL1        0.0447
     20 N         140.0794  139.4106  166.7707 N.pl3   1  UNL1       -0.2931
     21 C         138.8154  139.3880  167.5780 C.3     1  UNL1        0.0937
     22 C         138.7801  140.0283  168.9341 C.3     1  UNL1        0.0378
     23 C         139.1912  140.7596  170.1776 C.3     1  UNL1        0.0035
     24 C         140.6303  141.1554  170.0282 C.3     1  UNL1        0.0035
     25 C         141.1086  140.6687  168.6923 C.3     1  UNL1        0.0378
     26 C         141.3080  140.0735  167.3193 C.3     1  UNL1        0.0937
     27 C         139.9651  139.9721  168.0161 C.3     1  UNL1        0.0750
     28 C         142.7018  138.0967  162.4815 C.3     1  UNL1        0.0522
     29 C         141.4259  138.1133  163.2701 C.ar    1  UNL1        0.0639
     30 C         141.3906  138.7536  164.6261 C.ar    1  UNL1        0.0491
     31 C         140.1147  138.7703  165.4146 C.ar    1  UNL1        0.1346
     32 N         138.8741  138.1466  164.8472 N.ar    1  UNL1       -0.2090
     33 C         138.9094  137.5063  163.4912 C.ar    1  UNL1        0.1997
     34 N         140.1853  137.4897  162.7027 N.ar    1  UNL1       -0.2283
@<TRIPOS>BOND
     1    28    29    1
     2    29    30   ar
     3    30    31   ar
     4    31    20    1
     5    20    21    1
     6    22    21    1
     7    22    23    1
     8    23    24    1
     9    25    24    1
    10    25    26    1
    11    25    27    1
    12    27     1    1
    13     1     3    1
    14     3     4   ar
    15     4     5   ar
    16     5     6   ar
    17     6     7   ar
    18     6     8    1
    19     8     9    1
    20     9    10    1
    21    10    11    1
    22    11    12    1
    23    12    13   ar
    24    13    14   ar
    25    14    15    1
    26    14    16   ar
    27    16    17   ar
    28    17    18    1
    29    17    19   ar
    30    31    32   ar
    31    32    33   ar
    32    33    34   ar
    33    34    29   ar
    34    26    20    1
    35     7     3   ar
    36    19    12   ar
    37    27    22    1
    38    11     5    1
    39     1     2    1
@<TRIPOS>MOLECULE
*****
 34 39 0 0 0
SMALL
GASTEIGER

@<TRIPOS>ATOM
      1 N         141.4963  143.1776  162.5082 N.pl3   1  UNL1       -0.3033
      2 H         141.0335  143.9966  162.2179 H       1  UNL1        0.1496
      3 C         140.8276  142.2384  163.4678 C.ar    1  UNL1        0.2365
      4 N         141.0158  142.2166  164.9558 N.ar    1  UNL1       -0.1798
      5 C         140.1579  141.1209  165.5156 C.ar    1  UNL1        0.2234
      6 N         139.4395  140.4654  164.3735 N.ar    1  UNL1       -0.2192
      7 N         139.8534  141.1561  163.1080 N.ar    1  UNL1       -0.1317
      8 C         138.5013  139.3244  164.6335 C.3     1  UNL1        0.1322
      9 C         138.2814  138.8388  166.0356 C.3     1  UNL1        0.0483
     10 C         138.9998  139.4942  167.1777 C.3     1  UNL1        0.1005
     11 N         139.9381  140.6353  166.9176 N.pl3   1  UNL1       -0.2573
     12 C         140.6565  141.2908  168.0597 C.ar    1  UNL1        0.0585
     13 C         141.7651  140.5658  168.7635 C.ar    1  UNL1        0.0447
     14 C         142.4834  141.2213  169.9055 C.ar    1  UNL1        0.1436
     15 F         143.5921  140.4962  170.6094 F       1  UNL1       -0.2041
     16 C         142.0932  142.6017  170.3438 C.ar    1  UNL1        0.0593
     17 C         140.9847  143.3267  169.6400 C.ar    1  UNL1        0.1436
     18 F         140.5944  144.7072  170.0782 F       1  UNL1       -0.2041
     19 C         140.2663  142.6712  168.4979 C.ar    1  UNL1        0.0447
     20 N         141.6469  143.1500  162.5428 N.pl3   1  UNL1       -0.2931
     21 C         141.8772  143.0024  161.0680 C.3     1  UNL1        0.0937
     22 C         143.2509  142.6937  160.5506 C.3     1  UNL1        0.0378
     23 C         144.7203  142.3977  160.4925 C.3     1  UNL1        0.0035
     24 C         145.2475  142.3899  161.8968 C.3     1  UNL1        0.0035
     25 C         144.1038  142.6811  162.8229 C.3     1  UNL1        0.0378
     26 C         142.7903  142.9890  163.5003 C.3     1  UNL1        0.0937
     27 C         142.8699  142.8689  161.9908 C.3     1  UNL1        0.0750
     28 C         138.5692  145.2641  166.1566 C.3     1  UNL1        0.0522
     29 C         138.7344  144.5157  164.8670 C.ar    1  UNL1        0.0639
     30 C         140.1081  144.2071  164.3497 C.ar    1  UNL1        0.0491
     31 C         140.2732  143.4588  163.0602 C.ar    1  UNL1        0.1346
     32 N         139.0646  143.0192  162.2881 N.ar    1  UNL1       -0.2090
     33 C         137.6910  143.3278  162.8055 C.ar    1  UNL1        0.1997
     34 N         137.5258  144.0761  164.0949 N.ar    1  UNL1       -0.2283
@<TRIPOS>BOND
     1    28    29    1
     2    29    30   ar
     3    30    31   ar
     4    31    20    1
     5    20    21    1
     6    22    21    1
     7    22    23    1
     8    23    24    1
     9    25    24    1
    10    25    26    1
    11    25    27    1
    12    27     1    1
    13     1     3    1
    14     3     4   ar
    15     4     5   ar
    16     5     6   ar
    17     6     7   ar
    18     6     8    1
    19     8     9    1
    20     9    10    1
    21    10    11    1
    22    11    12    1
    23    12    13   ar
    24    13    14   ar
    25    14    15    1
    26    14    16   ar
    27    16    17   ar
    28    17    18    1
    29    17    19   ar
    30    31    32   ar
    31    32    33   ar
    32    33    34   ar
    33    34    29   ar
    34    26    20    1
    35     7     3   ar
    36    19    12   ar
    37    27    22    1
    38    11     5    1
    39     1     2    1
@<TRIPOS>MOLECULE
*****
 34 39 0 0 0
SMALL
GASTEIGER

@<TRIPOS>ATOM
      1 N         140.0370  139.3654  166.7814 N.pl3   1  UNL1       -0.3033
      2 H         140.2673  138.4157  166.6623 H       1  UNL1        0.1496
      3 C         139.6977  140.2102  165.5893 C.ar    1  UNL1        0.2365
      4 N         140.6431  141.1068  164.8462 N.ar    1  UNL1       -0.1798
      5 C         139.8831  141.7574  163.7285 C.ar    1  UNL1        0.2234
      6 N         138.4679  141.2628  163.7808 N.ar    1  UNL1       -0.2192
      7 N         138.3534  140.3065  164.9308 N.ar    1  UNL1       -0.1317
      8 C         137.4665  141.7470  162.7746 C.3     1  UNL1        0.1322
      9 C         137.8802  142.7259  161.7160 C.3     1  UNL1        0.0483
     10 C         139.2953  143.2205  161.6637 C.3     1  UNL1        0.1005
     11 N         140.2968  142.7363  162.6699 N.pl3   1  UNL1       -0.2573
     12 C         141.7119  143.2309  162.6176 C.ar    1  UNL1        0.0585
     13 C         142.6402  142.7364  161.5482 C.ar    1  UNL1        0.0447
     14 C         144.0553  143.2310  161.4959 C.ar    1  UNL1        0.1436
     15 F         144.9836  142.7364  160.4264 F       1  UNL1       -0.2041
     16 C         144.5422  144.2201  162.5130 C.ar    1  UNL1        0.0593
     17 C         143.6139  144.7147  163.5824 C.ar    1  UNL1        0.1436
     18 F         144.1007  145.7039  164.5996 F       1  UNL1       -0.2041
     19 C         142.1988  144.2200  163.6347 C.ar    1  UNL1        0.0447
     20 N         140.1199  139.4334  166.8961 N.pl3   1  UNL1       -0.2931
     21 C         138.8389  139.5043  167.6732 C.3     1  UNL1        0.0937
     22 C         138.8274  140.1066  169.0470 C.3     1  UNL1        0.0378
     23 C         139.2715  140.7616  170.3213 C.3     1  UNL1        0.0035
     24 C         140.7441  141.0275  170.2170 C.3     1  UNL1        0.0035
     25 C         141.2101  140.5369  168.8782 C.3     1  UNL1        0.0378
     26 C         141.3895  139.9649  167.4926 C.3     1  UNL1        0.0937
     27 C         140.0255  139.9677  168.1551 C.3     1  UNL1        0.0750
     28 C         142.6603  138.2622  162.5172 C.3     1  UNL1        0.0522
     29 C         141.4016  138.2455  163.3329 C.ar    1  UNL1        0.0639
     30 C         141.3901  138.8478  164.7066 C.ar    1  UNL1        0.0491
     31 C         140.1315  138.8311  165.5223 C.ar    1  UNL1        0.1346
     32 N         138.8843  138.2122  164.9643 N.ar    1  UNL1       -0.2090
     33 C         138.8957  137.6099  163.5906 C.ar    1  UNL1        0.1997
     34 N         140.1544  137.6266  162.7749 N.ar    1  UNL1       -0.2283
@<TRIPOS>BOND
     1    28    29    1
     2    29    30   ar
     3    30    31   ar
     4    31    20    1
     5    20    21    1
     6    22    21    1
     7    22    23    1
     8    23    24    1
     9    25    24    1
    10    25    26    1
    11    25    27    1
    12    27     1    1
    13     1     3    1
    14     3     4   ar
    15     4     5   ar
    16     5     6   ar
    17     6     7   ar
    18     6     8    1
    19     8     9    1
    20     9    10    1
    21    10    11    1
    22    11    12    1
    23    12    13   ar
    24    13    14   ar
    25    14    15    1
    26    14    16   ar
    27    16    17   ar
    28    17    18    1
    29    17    19   ar
    30    31    32   ar
    31    32    33   ar
    32    33    34   ar
    33    34    29   ar
    34    26    20    1
    35     7     3   ar
    36    19    12   ar
    37    27    22    1
    38    11     5    1
    39     1     2    1
@<TRIPOS>MOLECULE
*****
 34 39 0 0 0
SMALL
GASTEIGER

@<TRIPOS>ATOM
      1 N         142.8712  141.1081  166.7314 N.pl3   1  UNL1       -0.3033
      2 H         143.7166  141.0434  166.2310 H       1  UNL1        0.1496
      3 C         141.6765  141.7629  166.1040 C.ar    1  UNL1        0.2365
      4 N         140.7926  141.1617  165.0517 N.ar    1  UNL1       -0.1798
      5 C         139.7256  142.1611  164.7160 C.ar    1  UNL1        0.2234
      6 N         139.9500  143.3801  165.5608 N.ar    1  UNL1       -0.2192
      7 N         141.1557  143.1340  166.4186 N.ar    1  UNL1       -0.1317
      8 C         139.0276  144.5567  165.4399 C.3     1  UNL1        0.1322
      9 C         137.8806  144.5142  164.4741 C.3     1  UNL1        0.0483
     10 C         137.6562  143.2952  163.6293 C.3     1  UNL1        0.1005
     11 N         138.5787  142.1187  163.7502 N.pl3   1  UNL1       -0.2573
     12 C         138.3543  140.8997  162.9054 C.ar    1  UNL1        0.0585
     13 C         137.9389  141.0469  161.4717 C.ar    1  UNL1        0.0447
     14 C         137.7145  139.8279  160.6269 C.ar    1  UNL1        0.1436
     15 F         137.2991  139.9752  159.1930 F       1  UNL1       -0.2041
     16 C         137.9055  138.4617  161.2158 C.ar    1  UNL1        0.0593
     17 C         138.3208  138.3145  162.6496 C.ar    1  UNL1        0.1436
     18 F         138.5118  136.9482  163.2386 F       1  UNL1       -0.2041
     19 C         138.5453  139.5335  163.4944 C.ar    1  UNL1        0.0447
     20 N         142.8778  141.1371  166.8856 N.pl3   1  UNL1       -0.2931
     21 C         142.6068  139.6764  167.0922 C.3     1  UNL1        0.0937
     22 C         142.5136  139.1201  168.4822 C.3     1  UNL1        0.0378
     23 C         142.5051  139.0131  169.9783 C.3     1  UNL1        0.0035
     24 C         142.7643  140.3787  170.5423 C.3     1  UNL1        0.0035
     25 C         142.9330  141.3298  169.3945 C.3     1  UNL1        0.0378
     26 C         143.0557  142.0417  168.0689 C.3     1  UNL1        0.0937
     27 C         142.7781  140.5519  168.1213 C.3     1  UNL1        0.0750
     28 C         143.6254  145.1675  163.6922 C.3     1  UNL1        0.0522
     29 C         143.3448  143.7085  163.8990 C.ar    1  UNL1        0.0639
     30 C         143.2516  143.1523  165.2889 C.ar    1  UNL1        0.0491
     31 C         142.9710  141.6934  165.4956 C.ar    1  UNL1        0.1346
     32 N         142.7836  140.7907  164.3124 N.ar    1  UNL1       -0.2090
     33 C         142.8767  141.3469  162.9225 C.ar    1  UNL1        0.1997
     34 N         143.1573  142.8058  162.7158 N.ar    1  UNL1       -0.2283
@<TRIPOS>BOND
     1    28    29    1
     2    29    30   ar
     3    30    31   ar
     4    31    20    1
     5    20    21    1
     6    22    21    1
     7    22    23    1
     8    23    24    1
     9    25    24    1
    10    25    26    1
    11    25    27    1
    12    27     1    1
    13     1     3    1
    14     3     4   ar
    15     4     5   ar
    16     5     6   ar
    17     6     7   ar
    18     6     8    1
    19     8     9    1
    20     9    10    1
    21    10    11    1
    22    11    12    1
    23    12    13   ar
    24    13    14   ar
    25    14    15    1
    26    14    16   ar
    27    16    17   ar
    28    17    18    1
    29    17    19   ar
    30    31    32   ar
    31    32    33   ar
    32    33    34   ar
    33    34    29   ar
    34    26    20    1
    35     7     3   ar
    36    19    12   ar
    37    27    22    1
    38    11     5    1
    39     1     2    1
@<TRIPOS>MOLECULE
*****
 34 39 0 0 0
SMALL
GASTEIGER

@<TRIPOS>ATOM
      1 N         142.8643  141.1124  166.7214 N.pl3   1  UNL1       -0.3033
      2 H         143.7078  141.0461  166.2180 H       1  UNL1        0.1496
      3 C         141.6678  141.7670  166.0971 C.ar    1  UNL1        0.2365
      4 N         140.7876  141.1698  165.0394 N.ar    1  UNL1       -0.1798
      5 C         139.7172  142.1675  164.7095 C.ar    1  UNL1        0.2234
      6 N         139.9357  143.3812  165.5633 N.ar    1  UNL1       -0.2192
      7 N         141.1412  143.1337  166.4209 N.ar    1  UNL1       -0.1317
      8 C         139.0088  144.5550  165.4495 C.3     1  UNL1        0.1322
      9 C         137.8633  144.5150  164.4820 C.3     1  UNL1        0.0483
     10 C         137.6447  143.3012  163.6282 C.3     1  UNL1        0.1005
     11 N         138.5717  142.1274  163.7419 N.pl3   1  UNL1       -0.2573
     12 C         138.3531  140.9137  162.8881 C.ar    1  UNL1        0.0585
     13 C         138.5255  139.5437  163.4740 C.ar    1  UNL1        0.0447
     14 C         138.3069  138.3299  162.6202 C.ar    1  UNL1        0.1436
     15 F         138.4793  136.9598  163.2062 F       1  UNL1       -0.2041
     16 C         137.9160  138.4861  161.1805 C.ar    1  UNL1        0.0593
     17 C         137.7437  139.8561  160.5946 C.ar    1  UNL1        0.1436
     18 F         137.3528  140.0124  159.1549 F       1  UNL1       -0.2041
     19 C         137.9623  141.0699  161.4484 C.ar    1  UNL1        0.0447
     20 N         142.8706  141.1419  166.8755 N.pl3   1  UNL1       -0.2931
     21 C         142.6132  139.6792  167.0857 C.3     1  UNL1        0.0937
     22 C         142.5247  139.1255  168.4770 C.3     1  UNL1        0.0378
     23 C         142.5165  139.0221  169.9734 C.3     1  UNL1        0.0035
     24 C         142.7625  140.3916  170.5340 C.3     1  UNL1        0.0035
     25 C         142.9227  141.3413  169.3840 C.3     1  UNL1        0.0378
     26 C         143.0393  142.0510  168.0566 C.3     1  UNL1        0.0937
     27 C         142.7758  140.5588  168.1127 C.3     1  UNL1        0.0750
     28 C         143.6142  145.1649  163.6720 C.3     1  UNL1        0.0522
     29 C         143.3309  143.7070  163.8825 C.ar    1  UNL1        0.0639
     30 C         143.2424  143.1534  165.2738 C.ar    1  UNL1        0.0491
     31 C         142.9591  141.6955  165.4842 C.ar    1  UNL1        0.1346
     32 N         142.7644  140.7912  164.3034 N.ar    1  UNL1       -0.2090
     33 C         142.8530  141.3448  162.9121 C.ar    1  UNL1        0.1997
     34 N         143.1362  142.8027  162.7017 N.ar    1  UNL1       -0.2283
@<TRIPOS>BOND
     1    28    29    1
     2    29    30   ar
     3    30    31   ar
     4    31    20    1
     5    20    21    1
     6    22    21    1
     7    22    23    1
     8    23    24    1
     9    25    24    1
    10    25    26    1
    11    25    27    1
    12    27     1    1
    13     1     3    1
    14     3     4   ar
    15     4     5   ar
    16     5     6   ar
    17     6     7   ar
    18     6     8    1
    19     8     9    1
    20     9    10    1
    21    10    11    1
    22    11    12    1
    23    12    13   ar
    24    13    14   ar
    25    14    15    1
    26    14    16   ar
    27    16    17   ar
    28    17    18    1
    29    17    19   ar
    30    31    32   ar
    31    32    33   ar
    32    33    34   ar
    33    34    29   ar
    34    26    20    1
    35     7     3   ar
    36    19    12   ar
    37    27    22    1
    38    11     5    1
    39     1     2    1
@<TRIPOS>MOLECULE
*****
 34 39 0 0 0
SMALL
GASTEIGER

@<TRIPOS>ATOM
      1 N         141.6032  142.8027  162.4939 N.pl3   1  UNL1       -0.3033
      2 H         142.4782  142.5118  162.1489 H       1  UNL1        0.1496
      3 C         140.9126  142.0019  163.5577 C.ar    1  UNL1        0.2365
      4 N         141.1158  142.1408  165.0374 N.ar    1  UNL1       -0.1798
      5 C         140.2263  141.1464  165.7229 C.ar    1  UNL1        0.2234
      6 N         139.4733  140.3928  164.6668 N.ar    1  UNL1       -0.2192
      7 N         139.8974  140.9216  163.3287 N.ar    1  UNL1       -0.1317
      8 C         138.4987  139.3226  165.0601 C.3     1  UNL1        0.1322
      9 C         138.2771  139.0058  166.5094 C.3     1  UNL1        0.0483
     10 C         139.0301  139.7594  167.5654 C.3     1  UNL1        0.1005
     11 N         140.0047  140.8296  167.1722 N.pl3   1  UNL1       -0.2573
     12 C         140.7577  141.5832  168.2282 C.ar    1  UNL1        0.0585
     13 C         142.0525  141.0412  168.7569 C.ar    1  UNL1        0.0447
     14 C         142.8055  141.7948  169.8130 C.ar    1  UNL1        0.1436
     15 F         144.1004  141.2528  170.3417 F       1  UNL1       -0.2041
     16 C         142.2636  143.0903  170.3402 C.ar    1  UNL1        0.0593
     17 C         140.9688  143.6322  169.8115 C.ar    1  UNL1        0.1436
     18 F         140.4268  144.9277  170.3388 F       1  UNL1       -0.2041
     19 C         140.2158  142.8787  168.7555 C.ar    1  UNL1        0.0447
     20 N         141.5463  142.9457  162.5252 N.pl3   1  UNL1       -0.2931
     21 C         141.2318  143.0546  161.0626 C.3     1  UNL1        0.0937
     22 C         140.5892  144.2986  160.5242 C.3     1  UNL1        0.0378
     23 C         139.9757  145.6646  160.4381 C.3     1  UNL1        0.0035
     24 C         139.9679  146.2570  161.8162 C.3     1  UNL1        0.0035
     25 C         140.5766  145.2570  162.7540 C.3     1  UNL1        0.0378
     26 C         141.2183  144.0806  163.4494 C.3     1  UNL1        0.0937
     27 C         140.9606  144.0466  161.9556 C.3     1  UNL1        0.0750
     28 C         142.1856  137.7907  162.3898 C.3     1  UNL1        0.0522
     29 C         142.5085  139.1243  162.9958 C.ar    1  UNL1        0.0639
     30 C         141.8659  140.3682  162.4575 C.ar    1  UNL1        0.0491
     31 C         142.1889  141.7017  163.0635 C.ar    1  UNL1        0.1346
     32 N         143.1544  141.7914  164.2079 N.ar    1  UNL1       -0.2090
     33 C         143.7970  140.5476  164.7463 C.ar    1  UNL1        0.1997
     34 N         143.4741  139.2140  164.1403 N.ar    1  UNL1       -0.2283
@<TRIPOS>BOND
     1    28    29    1
     2    29    30   ar
     3    30    31   ar
     4    31    20    1
     5    20    21    1
     6    22    21    1
     7    22    23    1
     8    23    24    1
     9    25    24    1
    10    25    26    1
    11    25    27    1
    12    27     1    1
    13     1     3    1
    14     3     4   ar
    15     4     5   ar
    16     5     6   ar
    17     6     7   ar
    18     6     8    1
    19     8     9    1
    20     9    10    1
    21    10    11    1
    22    11    12    1
    23    12    13   ar
    24    13    14   ar
    25    14    15    1
    26    14    16   ar
    27    16    17   ar
    28    17    18    1
    29    17    19   ar
    30    31    32   ar
    31    32    33   ar
    32    33    34   ar
    33    34    29   ar
    34    26    20    1
    35     7     3   ar
    36    19    12   ar
    37    27    22    1
    38    11     5    1
    39     1     2    1
@<TRIPOS>MOLECULE
*****
 34 39 0 0 0
SMALL
GASTEIGER

@<TRIPOS>ATOM
      1 N         142.2292  140.2848  167.4121 N.pl3   1  UNL1       -0.3033
      2 H         143.1698  140.5465  167.5389 H       1  UNL1        0.1496
      3 C         141.7338  139.9050  166.0482 C.ar    1  UNL1        0.2365
      4 N         141.2702  140.8537  164.9827 N.ar    1  UNL1       -0.1798
      5 C         140.8648  140.0449  163.7863 C.ar    1  UNL1        0.2234
      6 N         141.0778  138.5963  164.1122 N.ar    1  UNL1       -0.2192
      7 N         141.6148  138.5099  165.5102 N.ar    1  UNL1       -0.1317
      8 C         140.7551  137.5431  163.0941 C.3     1  UNL1        0.1322
      9 C         140.2196  137.9386  161.7499 C.3     1  UNL1        0.0483
     10 C         140.0066  139.3871  161.4240 C.3     1  UNL1        0.1005
     11 N         140.3292  140.4403  162.4421 N.pl3   1  UNL1       -0.2573
     12 C         140.1163  141.8889  162.1162 C.ar    1  UNL1        0.0585
     13 C         141.1065  142.6177  161.2570 C.ar    1  UNL1        0.0447
     14 C         140.8935  144.0663  160.9310 C.ar    1  UNL1        0.1436
     15 F         141.8838  144.7952  160.0718 F       1  UNL1       -0.2041
     16 C         139.6904  144.7861  161.4642 C.ar    1  UNL1        0.0593
     17 C         138.7002  144.0572  162.3234 C.ar    1  UNL1        0.1436
     18 F         137.4970  144.7769  162.8567 F       1  UNL1       -0.2041
     19 C         138.9131  142.6086  162.6494 C.ar    1  UNL1        0.0447
     20 N         142.0927  140.3336  167.4723 N.pl3   1  UNL1       -0.2931
     21 C         142.4479  139.5563  168.7049 C.3     1  UNL1        0.0937
     22 C         141.5104  139.5373  169.8758 C.3     1  UNL1        0.0378
     23 C         140.3247  139.7931  170.7582 C.3     1  UNL1        0.0035
     24 C         139.3732  140.6797  170.0107 C.3     1  UNL1        0.0035
     25 C         139.9709  140.9718  168.6662 C.3     1  UNL1        0.0378
     26 C         140.7999  141.0919  167.4103 C.3     1  UNL1        0.0937
     27 C         141.2917  140.2657  168.5828 C.3     1  UNL1        0.0750
     28 C         144.5362  142.9499  163.7060 C.3     1  UNL1        0.0522
     29 C         144.2519  141.6608  164.4184 C.ar    1  UNL1        0.0639
     30 C         143.3144  141.6418  165.5891 C.ar    1  UNL1        0.0491
     31 C         143.0302  140.3527  166.3014 C.ar    1  UNL1        0.1346
     32 N         143.6836  139.0826  165.8430 N.ar    1  UNL1       -0.2090
     33 C         144.6211  139.1017  164.6723 C.ar    1  UNL1        0.1997
     34 N         144.9053  140.3907  163.9600 N.ar    1  UNL1       -0.2283
@<TRIPOS>BOND
     1    28    29    1
     2    29    30   ar
     3    30    31   ar
     4    31    20    1
     5    20    21    1
     6    22    21    1
     7    22    23    1
     8    23    24    1
     9    25    24    1
    10    25    26    1
    11    25    27    1
    12    27     1    1
    13     1     3    1
    14     3     4   ar
    15     4     5   ar
    16     5     6   ar
    17     6     7   ar
    18     6     8    1
    19     8     9    1
    20     9    10    1
    21    10    11    1
    22    11    12    1
    23    12    13   ar
    24    13    14   ar
    25    14    15    1
    26    14    16   ar
    27    16    17   ar
    28    17    18    1
    29    17    19   ar
    30    31    32   ar
    31    32    33   ar
    32    33    34   ar
    33    34    29   ar
    34    26    20    1
    35     7     3   ar
    36    19    12   ar
    37    27    22    1
    38    11     5    1
    39     1     2    1
@<TRIPOS>MOLECULE
*****
 34 39 0 0 0
SMALL
GASTEIGER

@<TRIPOS>ATOM
      1 N         142.1324  142.9400  162.2146 N.pl3   1  UNL1       -0.3033
      2 H         143.1127  142.9507  162.1242 H       1  UNL1        0.1496
      3 C         141.4395  141.7110  162.7241 C.ar    1  UNL1        0.2365
      4 N         141.2397  141.3449  164.1650 N.ar    1  UNL1       -0.1798
      5 C         140.5015  140.0400  164.2137 C.ar    1  UNL1        0.2234
      6 N         140.2451  139.5996  162.8029 N.ar    1  UNL1       -0.2192
      7 N         140.8248  140.6324  161.8823 N.ar    1  UNL1       -0.1317
      8 C         139.5169  138.3152  162.5388 C.3     1  UNL1        0.1322
      9 C         139.0451  137.4711  163.6854 C.3     1  UNL1        0.0483
     10 C         139.3015  137.9115  165.0962 C.3     1  UNL1        0.1005
     11 N         140.0297  139.1960  165.3603 N.pl3   1  UNL1       -0.2573
     12 C         140.2860  139.6364  166.7711 C.ar    1  UNL1        0.0585
     13 C         139.1392  139.8145  167.7214 C.ar    1  UNL1        0.0447
     14 C         139.3956  140.2549  169.1321 C.ar    1  UNL1        0.1436
     15 F         138.2487  140.4329  170.0824 F       1  UNL1       -0.2041
     16 C         140.7988  140.5172  169.5927 C.ar    1  UNL1        0.0593
     17 C         141.9456  140.3391  168.6424 C.ar    1  UNL1        0.1436
     18 F         143.3489  140.6014  169.1029 F       1  UNL1       -0.2041
     19 C         141.6893  139.8987  167.2316 C.ar    1  UNL1        0.0447
     20 N         142.0472  143.0620  162.2647 N.pl3   1  UNL1       -0.2931
     21 C         141.8730  143.4320  160.8215 C.3     1  UNL1        0.0937
     22 C         141.0722  144.6447  160.4496 C.3     1  UNL1        0.0378
     23 C         140.2300  145.8823  160.5444 C.3     1  UNL1        0.0035
     24 C         139.9689  146.1552  161.9961 C.3     1  UNL1        0.0035
     25 C         140.6498  145.0861  162.7985 C.3     1  UNL1        0.0378
     26 C         141.4207  143.9046  163.3359 C.3     1  UNL1        0.0937
     27 C         141.3317  144.1526  161.8427 C.3     1  UNL1        0.0750
     28 C         144.0990  138.4604  160.9935 C.3     1  UNL1        0.0522
     29 C         143.8738  139.5486  162.0011 C.ar    1  UNL1        0.0639
     30 C         143.0731  140.7612  161.6291 C.ar    1  UNL1        0.0491
     31 C         142.8479  141.8493  162.6367 C.ar    1  UNL1        0.1346
     32 N         143.4234  141.7248  164.0163 N.ar    1  UNL1       -0.2090
     33 C         144.2241  140.5122  164.3883 C.ar    1  UNL1        0.1997
     34 N         144.4493  139.4241  163.3807 N.ar    1  UNL1       -0.2283
@<TRIPOS>BOND
     1    28    29    1
     2    29    30   ar
     3    30    31   ar
     4    31    20    1
     5    20    21    1
     6    22    21    1
     7    22    23    1
     8    23    24    1
     9    25    24    1
    10    25    26    1
    11    25    27    1
    12    27     1    1
    13     1     3    1
    14     3     4   ar
    15     4     5   ar
    16     5     6   ar
    17     6     7   ar
    18     6     8    1
    19     8     9    1
    20     9    10    1
    21    10    11    1
    22    11    12    1
    23    12    13   ar
    24    13    14   ar
    25    14    15    1
    26    14    16   ar
    27    16    17   ar
    28    17    18    1
    29    17    19   ar
    30    31    32   ar
    31    32    33   ar
    32    33    34   ar
    33    34    29   ar
    34    26    20    1
    35     7     3   ar
    36    19    12   ar
    37    27    22    1
    38    11     5    1
    39     1     2    1
