@<TRIPOS>MOLECULE
*****
 36 41 0 0 0
SMALL
GASTEIGER

@<TRIPOS>ATOM
      1 C         138.9875  142.7641  162.8939 C.3     1  UNL1        0.0977
      2 C         138.1645  143.3362  164.0099 C.3     1  UNL1        0.0431
      3 C         138.3652  144.8227  164.0189 C.3     1  UNL1        0.1426
      4 O         139.3123  145.1693  162.9085 O.3     1  UNL1       -0.3557
      5 C         139.6969  143.8971  162.2132 C.3     1  UNL1        0.1247
      6 C         140.5198  143.3250  161.0972 C.3     1  UNL1        0.0460
      7 C         140.3191  141.8385  161.0882 C.3     1  UNL1        0.0605
      8 C         139.3721  141.4918  162.1986 C.3     1  UNL1        0.0271
      9 O         137.0557  141.0276  162.9488 O.2     1  UNL1       -0.2748
     10 C         138.2781  141.6312  163.5746 C.2     1  UNL1        0.2274
     11 N         138.7911  141.1019  164.8809 N.am    1  UNL1       -0.2749
     12 C         138.0817  139.9689  165.5616 C.3     1  UNL1        0.1000
     13 C         138.5947  139.4396  166.8680 C.3     1  UNL1        0.0670
     14 C         139.8171  140.0432  167.4937 C.ar    1  UNL1        0.0583
     15 N         140.3301  139.5139  168.8001 N.ar    1  UNL1       -0.2484
     16 C         141.5524  140.1174  169.4258 C.ar    1  UNL1        0.1023
     17 C         142.2618  141.2504  168.7452 C.ar    1  UNL1        0.0902
     18 C         141.7488  141.7797  167.4388 C.ar    1  UNL1        0.0040
     19 C         140.5264  141.1761  166.8131 C.ar    1  UNL1        0.0113
     20 C         140.0135  141.7054  165.5067 C.3     1  UNL1        0.1213
     21 C         143.4842  141.8539  169.3709 C.3     1  UNL1        0.4200
     22 F         144.7065  142.4575  169.9966 F       1  UNL1       -0.1658
     23 F         143.5976  142.8136  168.2237 F       1  UNL1       -0.1658
     24 F         143.3707  140.8943  170.5181 F       1  UNL1       -0.1658
     25 N         140.9540  140.8688  160.1359 N.3     1  UNL1       -0.2738
     26 C         142.3858  141.0483  159.7264 C.3     1  UNL1        0.0724
     27 C         143.0207  140.0787  158.7741 C.3     1  UNL1        0.0217
     28 C         142.2238  138.9297  158.2314 C.3     1  UNL1        0.0251
     29 C         140.7920  138.7502  158.6409 C.3     1  UNL1        0.0217
     30 C         140.1571  139.7198  159.5932 C.3     1  UNL1        0.0724
     31 C         142.8587  137.9601  157.2791 C.ar    1  UNL1       -0.0224
     32 C         143.6335  138.4664  156.0988 C.ar    1  UNL1       -0.0043
     33 C         144.2684  137.4967  155.1466 C.ar    1  UNL1       -0.0003
     34 C         144.1283  136.0208  155.3747 C.ar    1  UNL1       -0.0000
     35 C         143.3535  135.5145  156.5550 C.ar    1  UNL1       -0.0003
     36 C         142.7186  136.4841  157.5072 C.ar    1  UNL1       -0.0043
@<TRIPOS>BOND
     1     9    10    2
     2    10    11   am
     3    11    12    1
     4    12    13    1
     5    13    14    1
     6    14    15   ar
     7    15    16   ar
     8    16    17   ar
     9    17    21    1
    10    21    22    1
    11    21    23    1
    12    21    24    1
    13    17    18   ar
    14    18    19   ar
    15    19    20    1
    16     1    10    1
    17     1     2    1
    18     2     3    1
    19     3     4    1
    20     4     5    1
    21     5     6    1
    22     6     7    1
    23     7    25    1
    24    25    26    1
    25    26    27    1
    26    27    28    1
    27    28    31    1
    28    31    32   ar
    29    32    33   ar
    30    33    34   ar
    31    34    35   ar
    32    35    36   ar
    33    28    29    1
    34    29    30    1
    35     7     8    1
    36    20    11    1
    37     5     1    1
    38    30    25    1
    39    19    14   ar
    40     8     1    1
    41    36    31   ar
@<TRIPOS>MOLECULE
*****
 36 41 0 0 0
SMALL
GASTEIGER

@<TRIPOS>ATOM
      1 C         143.7142  140.3899  162.3450 C.3     1  UNL1        0.0977
      2 C         143.9863  139.2183  163.2412 C.3     1  UNL1        0.0431
      3 C         145.1774  139.5508  164.0901 C.3     1  UNL1        0.1426
      4 O         145.6415  140.9279  163.7185 O.3     1  UNL1       -0.3557
      5 C         144.7372  141.4466  162.6400 C.3     1  UNL1        0.1247
      6 C         144.4652  142.6182  161.7438 C.3     1  UNL1        0.0460
      7 C         143.2740  142.2857  160.8949 C.3     1  UNL1        0.0605
      8 C         142.8099  140.9086  161.2664 C.3     1  UNL1        0.0271
      9 O         142.7471  138.5755  160.7567 O.2     1  UNL1       -0.2748
     10 C         142.6912  139.3333  162.0500 C.2     1  UNL1        0.2274
     11 N         141.6122  139.0346  163.0483 N.am    1  UNL1       -0.2749
     12 C         140.5892  137.9779  162.7532 C.3     1  UNL1        0.1000
     13 C         139.5102  137.6791  163.7515 C.3     1  UNL1        0.0670
     14 C         139.4543  138.4370  165.0448 C.ar    1  UNL1        0.0583
     15 N         138.3753  138.1382  166.0431 N.ar    1  UNL1       -0.2484
     16 C         138.3193  138.8960  167.3363 C.ar    1  UNL1        0.1023
     17 C         139.3423  139.9527  167.6313 C.ar    1  UNL1        0.0902
     18 C         140.4213  140.2515  166.6331 C.ar    1  UNL1        0.0040
     19 C         140.4772  139.4936  165.3398 C.ar    1  UNL1        0.0113
     20 C         141.5562  139.7924  164.3415 C.3     1  UNL1        0.1213
     21 C         139.2863  140.7105  168.9246 C.3     1  UNL1        0.4200
     22 F         139.2303  141.4683  170.2178 F       1  UNL1       -0.1658
     23 F         138.1925  139.8050  169.4078 F       1  UNL1       -0.1658
     24 F         140.3802  141.6160  168.4414 F       1  UNL1       -0.1658
     25 N         142.6555  143.1744  159.8566 N.3     1  UNL1       -0.2738
     26 C         143.1752  143.1582  158.4496 C.3     1  UNL1        0.0724
     27 C         142.5568  144.0468  157.4114 C.3     1  UNL1        0.0217
     28 C         141.4188  144.9517  157.7803 C.3     1  UNL1        0.0251
     29 C         140.8991  144.9679  159.1873 C.3     1  UNL1        0.0217
     30 C         141.5175  144.0793  160.2255 C.3     1  UNL1        0.0724
     31 C         140.8003  145.8403  156.7420 C.ar    1  UNL1       -0.0224
     32 C         141.3167  145.8206  155.3339 C.ar    1  UNL1       -0.0043
     33 C         140.6982  146.7092  154.2958 C.ar    1  UNL1       -0.0003
     34 C         139.5634  147.6177  154.6658 C.ar    1  UNL1       -0.0000
     35 C         139.0470  147.6374  156.0739 C.ar    1  UNL1       -0.0003
     36 C         139.6655  146.7488  157.1121 C.ar    1  UNL1       -0.0043
@<TRIPOS>BOND
     1     9    10    2
     2    10    11   am
     3    11    12    1
     4    12    13    1
     5    13    14    1
     6    14    15   ar
     7    15    16   ar
     8    16    17   ar
     9    17    21    1
    10    21    22    1
    11    21    23    1
    12    21    24    1
    13    17    18   ar
    14    18    19   ar
    15    19    20    1
    16     1    10    1
    17     1     2    1
    18     2     3    1
    19     3     4    1
    20     4     5    1
    21     5     6    1
    22     6     7    1
    23     7    25    1
    24    25    26    1
    25    26    27    1
    26    27    28    1
    27    28    31    1
    28    31    32   ar
    29    32    33   ar
    30    33    34   ar
    31    34    35   ar
    32    35    36   ar
    33    28    29    1
    34    29    30    1
    35     7     8    1
    36    20    11    1
    37     5     1    1
    38    30    25    1
    39    19    14   ar
    40     8     1    1
    41    36    31   ar
@<TRIPOS>MOLECULE
*****
 36 41 0 0 0
SMALL
GASTEIGER

@<TRIPOS>ATOM
      1 C         140.3395  143.3707  161.9761 C.3     1  UNL1        0.0977
      2 C         140.4123  144.4903  162.9717 C.3     1  UNL1        0.0431
      3 C         139.0571  145.1283  163.0519 C.3     1  UNL1        0.1426
      4 O         138.1467  144.4030  162.1058 O.3     1  UNL1       -0.3557
      5 C         138.9392  143.3168  161.4409 C.3     1  UNL1        0.1247
      6 C         138.8663  142.1972  160.4454 C.3     1  UNL1        0.0460
      7 C         140.2216  141.5592  160.3652 C.3     1  UNL1        0.0605
      8 C         141.1320  142.2845  161.3113 C.3     1  UNL1        0.0271
      9 O         142.8529  143.9416  161.6489 O.2     1  UNL1       -0.2748
     10 C         141.7397  143.4247  162.5113 C.2     1  UNL1        0.2274
     11 N         142.0268  142.9617  163.9089 N.am    1  UNL1       -0.2749
     12 C         143.4271  143.0157  164.4441 C.3     1  UNL1        0.1000
     13 C         143.7142  142.5528  165.8417 C.3     1  UNL1        0.0670
     14 C         142.6010  142.0359  166.7041 C.ar    1  UNL1        0.0583
     15 N         142.8881  141.5730  168.1017 N.ar    1  UNL1       -0.2484
     16 C         141.7750  141.0561  168.9641 C.ar    1  UNL1        0.1023
     17 C         140.3747  141.0021  168.4289 C.ar    1  UNL1        0.0902
     18 C         140.0876  141.4651  167.0313 C.ar    1  UNL1        0.0040
     19 C         141.2008  141.9820  166.1689 C.ar    1  UNL1        0.0113
     20 C         140.9137  142.4449  164.7713 C.3     1  UNL1        0.1213
     21 C         139.2616  140.4853  169.2914 C.3     1  UNL1        0.4200
     22 F         138.1485  139.9684  170.1538 F       1  UNL1       -0.1658
     23 F         138.8471  139.5491  168.1952 F       1  UNL1       -0.1658
     24 F         139.6762  141.4215  170.3875 F       1  UNL1       -0.1658
     25 N         140.5999  140.3995  159.4922 N.3     1  UNL1       -0.2738
     26 C         142.0435  140.1308  159.1861 C.3     1  UNL1        0.0724
     27 C         142.4218  138.9712  158.3131 C.3     1  UNL1        0.0217
     28 C         141.3565  138.0802  157.7463 C.3     1  UNL1        0.0251
     29 C         139.9129  138.3489  158.0525 C.3     1  UNL1        0.0217
     30 C         139.5346  139.5085  158.9254 C.3     1  UNL1        0.0724
     31 C         141.7349  136.9205  156.8734 C.ar    1  UNL1       -0.0224
     32 C         142.9871  136.1451  157.1574 C.ar    1  UNL1       -0.0043
     33 C         143.3653  134.9855  156.2844 C.ar    1  UNL1       -0.0003
     34 C         142.4914  134.6013  155.1274 C.ar    1  UNL1       -0.0000
     35 C         141.2392  135.3767  154.8434 C.ar    1  UNL1       -0.0003
     36 C         140.8609  136.5363  155.7164 C.ar    1  UNL1       -0.0043
@<TRIPOS>BOND
     1     9    10    2
     2    10    11   am
     3    11    12    1
     4    12    13    1
     5    13    14    1
     6    14    15   ar
     7    15    16   ar
     8    16    17   ar
     9    17    21    1
    10    21    22    1
    11    21    23    1
    12    21    24    1
    13    17    18   ar
    14    18    19   ar
    15    19    20    1
    16     1    10    1
    17     1     2    1
    18     2     3    1
    19     3     4    1
    20     4     5    1
    21     5     6    1
    22     6     7    1
    23     7    25    1
    24    25    26    1
    25    26    27    1
    26    27    28    1
    27    28    31    1
    28    31    32   ar
    29    32    33   ar
    30    33    34   ar
    31    34    35   ar
    32    35    36   ar
    33    28    29    1
    34    29    30    1
    35     7     8    1
    36    20    11    1
    37     5     1    1
    38    30    25    1
    39    19    14   ar
    40     8     1    1
    41    36    31   ar
@<TRIPOS>MOLECULE
*****
 36 41 0 0 0
SMALL
GASTEIGER

@<TRIPOS>ATOM
      1 C         143.3026  139.8594  156.7580 C.3     1  UNL1        0.0977
      2 C         143.7088  139.8944  155.3145 C.3     1  UNL1        0.0431
      3 C         145.0887  140.4772  155.2352 C.3     1  UNL1        0.1426
      4 O         145.5353  140.8024  156.6298 O.3     1  UNL1       -0.3557
      5 C         144.4315  140.4206  157.5709 C.3     1  UNL1        0.1247
      6 C         144.0253  140.3856  159.0144 C.3     1  UNL1        0.0460
      7 C         142.6454  139.8028  159.0937 C.3     1  UNL1        0.0605
      8 C         142.1987  139.4776  157.6991 C.3     1  UNL1        0.0271
      9 O         141.2168  140.2224  155.2520 O.2     1  UNL1       -0.2748
     10 C         142.1738  139.2983  155.9451 C.2     1  UNL1        0.2274
     11 N         142.0018  137.8130  155.8253 N.am    1  UNL1       -0.2749
     12 C         140.8729  137.2518  155.0123 C.3     1  UNL1        0.1000
     13 C         140.7009  135.7666  154.8925 C.3     1  UNL1        0.0670
     14 C         141.6578  134.8424  155.5856 C.ar    1  UNL1        0.0583
     15 N         141.4858  133.3571  155.4658 N.ar    1  UNL1       -0.2484
     16 C         142.4427  132.4330  156.1589 C.ar    1  UNL1        0.1023
     17 C         143.5716  132.9941  156.9718 C.ar    1  UNL1        0.0902
     18 C         143.7435  134.4794  157.0916 C.ar    1  UNL1        0.0040
     19 C         142.7866  135.4036  156.3985 C.ar    1  UNL1        0.0113
     20 C         142.9586  136.8888  156.5183 C.3     1  UNL1        0.1213
     21 C         144.5284  132.0700  157.6649 C.3     1  UNL1        0.4200
     22 F         145.4852  131.1458  158.3579 F       1  UNL1       -0.1658
     23 F         145.1122  133.2334  158.4102 F       1  UNL1       -0.1658
     24 F         143.9446  130.9066  156.9195 F       1  UNL1       -0.1658
     25 N         141.8515  139.5837  160.3474 N.3     1  UNL1       -0.2738
     26 C         141.1534  138.2755  160.5741 C.3     1  UNL1        0.0724
     27 C         140.3596  138.0564  161.8278 C.3     1  UNL1        0.0217
     28 C         140.2638  139.1454  162.8548 C.3     1  UNL1        0.0251
     29 C         140.9618  140.4536  162.6281 C.3     1  UNL1        0.0217
     30 C         141.7557  140.6728  161.3744 C.3     1  UNL1        0.0724
     31 C         139.4699  138.9263  164.1085 C.ar    1  UNL1       -0.0224
     32 C         139.2272  137.5332  164.6087 C.ar    1  UNL1       -0.0043
     33 C         138.4333  137.3142  165.8624 C.ar    1  UNL1       -0.0003
     34 C         137.8822  138.4883  166.6159 C.ar    1  UNL1       -0.0000
     35 C         138.1249  139.8814  166.1157 C.ar    1  UNL1       -0.0003
     36 C         138.9188  140.1004  164.8620 C.ar    1  UNL1       -0.0043
@<TRIPOS>BOND
     1     9    10    2
     2    10    11   am
     3    11    12    1
     4    12    13    1
     5    13    14    1
     6    14    15   ar
     7    15    16   ar
     8    16    17   ar
     9    17    21    1
    10    21    22    1
    11    21    23    1
    12    21    24    1
    13    17    18   ar
    14    18    19   ar
    15    19    20    1
    16     1    10    1
    17     1     2    1
    18     2     3    1
    19     3     4    1
    20     4     5    1
    21     5     6    1
    22     6     7    1
    23     7    25    1
    24    25    26    1
    25    26    27    1
    26    27    28    1
    27    28    31    1
    28    31    32   ar
    29    32    33   ar
    30    33    34   ar
    31    34    35   ar
    32    35    36   ar
    33    28    29    1
    34    29    30    1
    35     7     8    1
    36    20    11    1
    37     5     1    1
    38    30    25    1
    39    19    14   ar
    40     8     1    1
    41    36    31   ar
@<TRIPOS>MOLECULE
*****
 36 41 0 0 0
SMALL
GASTEIGER

@<TRIPOS>ATOM
      1 C         141.4462  143.3935  160.8708 C.3     1  UNL1        0.0977
      2 C         141.5868  144.5655  161.7963 C.3     1  UNL1        0.0431
      3 C         140.4457  145.5031  161.5337 C.3     1  UNL1        0.1426
      4 O         139.5999  144.9105  160.4458 O.3     1  UNL1       -0.3557
      5 C         140.2181  143.6067  160.0362 C.3     1  UNL1        0.1247
      6 C         140.0775  142.4347  159.1107 C.3     1  UNL1        0.0460
      7 C         141.2186  141.4971  159.3733 C.3     1  UNL1        0.0605
      8 C         142.0644  142.0897  160.4611 C.3     1  UNL1        0.0271
      9 O         143.9909  143.7443  161.2602 O.2     1  UNL1       -0.2748
     10 C         142.6741  143.1803  161.7054 C.2     1  UNL1        0.2274
     11 N         142.5854  142.4032  162.9854 N.am    1  UNL1       -0.2749
     12 C         143.8134  142.1900  163.8200 C.3     1  UNL1        0.1000
     13 C         143.7247  141.4129  165.0999 C.3     1  UNL1        0.0670
     14 C         142.4080  140.8489  165.5452 C.ar    1  UNL1        0.0583
     15 N         142.3193  140.0718  166.8251 N.ar    1  UNL1       -0.2484
     16 C         141.0026  139.5078  167.2704 C.ar    1  UNL1        0.1023
     17 C         139.7746  139.7210  166.4358 C.ar    1  UNL1        0.0902
     18 C         139.8633  140.4982  165.1559 C.ar    1  UNL1        0.0040
     19 C         141.1800  141.0621  164.7106 C.ar    1  UNL1        0.0113
     20 C         141.2687  141.8392  163.4307 C.3     1  UNL1        0.1213
     21 C         138.4579  139.1571  166.8811 C.3     1  UNL1        0.4200
     22 F         137.1412  138.5931  167.3264 F       1  UNL1       -0.1658
     23 F         138.7864  139.5113  168.3011 F       1  UNL1       -0.1658
     24 F         138.1294  138.8028  165.4611 F       1  UNL1       -0.1658
     25 N         141.4696  140.1954  158.6714 N.3     1  UNL1       -0.2738
     26 C         140.8541  139.9368  157.3282 C.3     1  UNL1        0.0724
     27 C         141.1051  138.6352  156.6262 C.3     1  UNL1        0.0217
     28 C         141.9717  137.5923  157.2674 C.3     1  UNL1        0.0251
     29 C         142.5873  137.8509  158.6106 C.3     1  UNL1        0.0217
     30 C         142.3362  139.1525  159.3126 C.3     1  UNL1        0.0724
     31 C         142.2228  136.2906  156.5654 C.ar    1  UNL1       -0.0224
     32 C         141.2228  135.7658  155.5783 C.ar    1  UNL1       -0.0043
     33 C         141.4739  134.4642  154.8764 C.ar    1  UNL1       -0.0003
     34 C         142.7250  133.6874  155.1616 C.ar    1  UNL1       -0.0000
     35 C         143.7250  134.2123  156.1487 C.ar    1  UNL1       -0.0003
     36 C         143.4739  135.5139  156.8506 C.ar    1  UNL1       -0.0043
@<TRIPOS>BOND
     1     9    10    2
     2    10    11   am
     3    11    12    1
     4    12    13    1
     5    13    14    1
     6    14    15   ar
     7    15    16   ar
     8    16    17   ar
     9    17    21    1
    10    21    22    1
    11    21    23    1
    12    21    24    1
    13    17    18   ar
    14    18    19   ar
    15    19    20    1
    16     1    10    1
    17     1     2    1
    18     2     3    1
    19     3     4    1
    20     4     5    1
    21     5     6    1
    22     6     7    1
    23     7    25    1
    24    25    26    1
    25    26    27    1
    26    27    28    1
    27    28    31    1
    28    31    32   ar
    29    32    33   ar
    30    33    34   ar
    31    34    35   ar
    32    35    36   ar
    33    28    29    1
    34    29    30    1
    35     7     8    1
    36    20    11    1
    37     5     1    1
    38    30    25    1
    39    19    14   ar
    40     8     1    1
    41    36    31   ar
@<TRIPOS>MOLECULE
*****
 36 41 0 0 0
SMALL
GASTEIGER

@<TRIPOS>ATOM
      1 C         139.6460  140.6985  158.4136 C.3     1  UNL1        0.0977
      2 C         138.8671  141.7620  159.1293 C.3     1  UNL1        0.0431
      3 C         139.3893  143.0965  158.6862 C.3     1  UNL1        0.1426
      4 O         140.4910  142.8579  157.6967 O.3     1  UNL1       -0.3557
      5 C         140.6497  141.3759  157.5282 C.3     1  UNL1        0.1247
      6 C         141.4287  140.3124  156.8125 C.3     1  UNL1        0.0460
      7 C         140.9065  138.9779  157.2555 C.3     1  UNL1        0.0605
      8 C         139.8048  139.2165  158.2451 C.3     1  UNL1        0.0271
      9 O         137.2182  139.8822  158.8489 O.2     1  UNL1       -0.2748
     10 C         138.6424  140.0212  159.2990 C.2     1  UNL1        0.2274
     11 N         139.0629  139.4829  160.6344 N.am    1  UNL1       -0.2749
     12 C         138.0591  138.8056  161.5198 C.3     1  UNL1        0.1000
     13 C         138.4796  138.2673  162.8553 C.3     1  UNL1        0.0670
     14 C         139.9038  138.4063  163.3054 C.ar    1  UNL1        0.0583
     15 N         140.3242  137.8680  164.6408 N.ar    1  UNL1       -0.2484
     16 C         141.7483  138.0070  165.0909 C.ar    1  UNL1        0.1023
     17 C         142.7520  138.6843  164.2055 C.ar    1  UNL1        0.0902
     18 C         142.3316  139.2226  162.8700 C.ar    1  UNL1        0.0040
     19 C         140.9074  139.0836  162.4200 C.ar    1  UNL1        0.0113
     20 C         140.4870  139.6219  161.0845 C.3     1  UNL1        0.1213
     21 C         144.1761  138.8233  164.6555 C.3     1  UNL1        0.4200
     22 F         145.6002  138.9623  165.1056 F       1  UNL1       -0.1658
     23 F         144.5823  139.1871  163.2582 F       1  UNL1       -0.1658
     24 F         143.7700  138.4595  166.0529 F       1  UNL1       -0.1658
     25 N         141.3995  137.6396  156.7906 N.3     1  UNL1       -0.2738
     26 C         142.6852  137.0855  157.3292 C.3     1  UNL1        0.0724
     27 C         143.1783  135.7473  156.8643 C.3     1  UNL1        0.0217
     28 C         142.3856  134.9632  155.8609 C.3     1  UNL1        0.0251
     29 C         141.1000  135.5173  155.3224 C.3     1  UNL1        0.0217
     30 C         140.6069  136.8555  155.7872 C.3     1  UNL1        0.0724
     31 C         142.8787  133.6250  155.3960 C.ar    1  UNL1       -0.0224
     32 C         142.3212  133.0135  154.1449 C.ar    1  UNL1       -0.0043
     33 C         142.8142  131.6754  153.6801 C.ar    1  UNL1       -0.0003
     34 C         143.8647  130.9486  154.4663 C.ar    1  UNL1       -0.0000
     35 C         144.4223  131.5601  155.7174 C.ar    1  UNL1       -0.0003
     36 C         143.9292  132.8982  156.1823 C.ar    1  UNL1       -0.0043
@<TRIPOS>BOND
     1     9    10    2
     2    10    11   am
     3    11    12    1
     4    12    13    1
     5    13    14    1
     6    14    15   ar
     7    15    16   ar
     8    16    17   ar
     9    17    21    1
    10    21    22    1
    11    21    23    1
    12    21    24    1
    13    17    18   ar
    14    18    19   ar
    15    19    20    1
    16     1    10    1
    17     1     2    1
    18     2     3    1
    19     3     4    1
    20     4     5    1
    21     5     6    1
    22     6     7    1
    23     7    25    1
    24    25    26    1
    25    26    27    1
    26    27    28    1
    27    28    31    1
    28    31    32   ar
    29    32    33   ar
    30    33    34   ar
    31    34    35   ar
    32    35    36   ar
    33    28    29    1
    34    29    30    1
    35     7     8    1
    36    20    11    1
    37     5     1    1
    38    30    25    1
    39    19    14   ar
    40     8     1    1
    41    36    31   ar
@<TRIPOS>MOLECULE
*****
 36 41 0 0 0
SMALL
GASTEIGER

@<TRIPOS>ATOM
      1 C         141.5404  139.1602  158.0193 C.3     1  UNL1        0.0977
      2 C         141.4619  140.4780  158.7314 C.3     1  UNL1        0.0431
      3 C         140.1327  141.0973  158.4153 C.3     1  UNL1        0.1426
      4 O         139.3897  140.1622  157.5079 O.3     1  UNL1       -0.3557
      5 C         140.2596  138.9650  157.2631 C.3     1  UNL1        0.1247
      6 C         140.3381  137.6472  156.5509 C.3     1  UNL1        0.0460
      7 C         141.6673  137.0279  156.8670 C.3     1  UNL1        0.0605
      8 C         142.4103  137.9630  157.7744 C.3     1  UNL1        0.0271
      9 O         144.0889  139.6649  158.0360 O.2     1  UNL1       -0.2748
     10 C         142.8210  139.3554  158.7754 C.2     1  UNL1        0.2274
     11 N         142.8338  139.2412  160.2710 N.am    1  UNL1       -0.2749
     12 C         144.1145  139.4364  161.0272 C.3     1  UNL1        0.1000
     13 C         144.1272  139.3222  162.5228 C.3     1  UNL1        0.0670
     14 C         142.8593  139.0127  163.2622 C.ar    1  UNL1        0.0583
     15 N         142.8721  138.8985  164.7578 N.ar    1  UNL1       -0.2484
     16 C         141.6043  138.5891  165.4972 C.ar    1  UNL1        0.1023
     17 C         140.3235  138.3938  164.7410 C.ar    1  UNL1        0.0902
     18 C         140.3108  138.5080  163.2454 C.ar    1  UNL1        0.0040
     19 C         141.5787  138.8175  162.5060 C.ar    1  UNL1        0.0113
     20 C         141.5659  138.9317  161.0104 C.3     1  UNL1        0.1213
     21 C         139.0557  138.0844  165.4804 C.3     1  UNL1        0.4200
     22 F         137.7879  137.7749  166.2199 F       1  UNL1       -0.1658
     23 F         138.6355  137.1627  164.3742 F       1  UNL1       -0.1658
     24 F         139.4759  139.0061  166.5867 F       1  UNL1       -0.1658
     25 N         142.1659  135.7056  156.3638 N.3     1  UNL1       -0.2738
     26 C         141.4441  135.0063  155.2503 C.3     1  UNL1        0.0724
     27 C         141.9426  133.6841  154.7471 C.3     1  UNL1        0.0217
     28 C         143.1630  133.0612  155.3575 C.3     1  UNL1        0.0251
     29 C         143.8848  133.7605  156.4710 C.3     1  UNL1        0.0217
     30 C         143.3863  135.0827  156.9742 C.3     1  UNL1        0.0724
     31 C         143.6616  131.7390  154.8544 C.ar    1  UNL1       -0.0224
     32 C         143.3875  131.3232  153.4395 C.ar    1  UNL1       -0.0043
     33 C         143.8861  130.0010  152.9364 C.ar    1  UNL1       -0.0003
     34 C         144.6588  129.0946  153.8482 C.ar    1  UNL1       -0.0000
     35 C         144.9328  129.5104  155.2631 C.ar    1  UNL1       -0.0003
     36 C         144.4342  130.8326  155.7662 C.ar    1  UNL1       -0.0043
@<TRIPOS>BOND
     1     9    10    2
     2    10    11   am
     3    11    12    1
     4    12    13    1
     5    13    14    1
     6    14    15   ar
     7    15    16   ar
     8    16    17   ar
     9    17    21    1
    10    21    22    1
    11    21    23    1
    12    21    24    1
    13    17    18   ar
    14    18    19   ar
    15    19    20    1
    16     1    10    1
    17     1     2    1
    18     2     3    1
    19     3     4    1
    20     4     5    1
    21     5     6    1
    22     6     7    1
    23     7    25    1
    24    25    26    1
    25    26    27    1
    26    27    28    1
    27    28    31    1
    28    31    32   ar
    29    32    33   ar
    30    33    34   ar
    31    34    35   ar
    32    35    36   ar
    33    28    29    1
    34    29    30    1
    35     7     8    1
    36    20    11    1
    37     5     1    1
    38    30    25    1
    39    19    14   ar
    40     8     1    1
    41    36    31   ar
@<TRIPOS>MOLECULE
*****
 36 41 0 0 0
SMALL
GASTEIGER

@<TRIPOS>ATOM
      1 C         139.3618  143.3024  161.6977 C.3     1  UNL1        0.0977
      2 C         138.2318  143.1573  162.6734 C.3     1  UNL1        0.0431
      3 C         137.7184  144.5294  162.9956 C.3     1  UNL1        0.1426
      4 O         138.5312  145.5226  162.2190 O.3     1  UNL1       -0.3557
      5 C         139.5468  144.7643  161.4169 C.3     1  UNL1        0.1247
      6 C         140.6768  144.9094  160.4412 C.3     1  UNL1        0.0460
      7 C         141.1902  143.5373  160.1190 C.3     1  UNL1        0.0605
      8 C         140.3775  142.5441  160.8956 C.3     1  UNL1        0.0271
      9 O         138.6793  140.9264  160.8984 O.2     1  UNL1       -0.2748
     10 C         139.1768  141.8406  161.9786 C.2     1  UNL1        0.2274
     11 N         139.4893  141.2930  163.3396 N.am    1  UNL1       -0.2749
     12 C         139.3043  139.8311  163.6205 C.3     1  UNL1        0.1000
     13 C         139.6168  139.2835  164.9815 C.3     1  UNL1        0.0670
     14 C         140.1143  140.1977  166.0617 C.ar    1  UNL1        0.0583
     15 N         140.4268  139.6500  167.4227 N.ar    1  UNL1       -0.2484
     16 C         140.9243  140.5641  168.5029 C.ar    1  UNL1        0.1023
     17 C         141.1094  142.0260  168.2221 C.ar    1  UNL1        0.0902
     18 C         140.7969  142.5737  166.8610 C.ar    1  UNL1        0.0040
     19 C         140.2993  141.6594  165.7808 C.ar    1  UNL1        0.0113
     20 C         139.9868  142.2071  164.4198 C.3     1  UNL1        0.1213
     21 C         141.6069  142.9401  169.3022 C.3     1  UNL1        0.4200
     22 F         142.1044  143.8542  170.3824 F       1  UNL1       -0.1658
     23 F         142.8036  142.0573  169.4981 F       1  UNL1       -0.1658
     24 F         140.4101  143.8229  169.1064 F       1  UNL1       -0.1658
     25 N         142.3183  143.2150  159.1843 N.3     1  UNL1       -0.2738
     26 C         143.6269  142.7244  159.7292 C.3     1  UNL1        0.0724
     27 C         144.7549  142.4021  158.7946 C.3     1  UNL1        0.0217
     28 C         144.5744  142.5703  157.3150 C.3     1  UNL1        0.0251
     29 C         143.2658  143.0609  156.7701 C.3     1  UNL1        0.0217
     30 C         142.1377  143.3832  157.7047 C.3     1  UNL1        0.0724
     31 C         145.7025  142.2480  156.3803 C.ar    1  UNL1       -0.0224
     32 C         147.1202  142.4985  156.8013 C.ar    1  UNL1       -0.0043
     33 C         148.2482  142.1762  155.8666 C.ar    1  UNL1       -0.0003
     34 C         147.9584  141.6033  154.5109 C.ar    1  UNL1       -0.0000
     35 C         146.5407  141.3528  154.0899 C.ar    1  UNL1       -0.0003
     36 C         145.4127  141.6751  155.0246 C.ar    1  UNL1       -0.0043
@<TRIPOS>BOND
     1     9    10    2
     2    10    11   am
     3    11    12    1
     4    12    13    1
     5    13    14    1
     6    14    15   ar
     7    15    16   ar
     8    16    17   ar
     9    17    21    1
    10    21    22    1
    11    21    23    1
    12    21    24    1
    13    17    18   ar
    14    18    19   ar
    15    19    20    1
    16     1    10    1
    17     1     2    1
    18     2     3    1
    19     3     4    1
    20     4     5    1
    21     5     6    1
    22     6     7    1
    23     7    25    1
    24    25    26    1
    25    26    27    1
    26    27    28    1
    27    28    31    1
    28    31    32   ar
    29    32    33   ar
    30    33    34   ar
    31    34    35   ar
    32    35    36   ar
    33    28    29    1
    34    29    30    1
    35     7     8    1
    36    20    11    1
    37     5     1    1
    38    30    25    1
    39    19    14   ar
    40     8     1    1
    41    36    31   ar
@<TRIPOS>MOLECULE
*****
 36 41 0 0 0
SMALL
GASTEIGER

@<TRIPOS>ATOM
      1 C         141.4604  138.4688  159.3731 C.3     1  UNL1        0.0977
      2 C         141.2943  138.4491  157.8825 C.3     1  UNL1        0.0431
      3 C         142.4077  137.6278  157.3029 C.3     1  UNL1        0.1426
      4 O         143.2619  137.1399  158.4353 O.3     1  UNL1       -0.3557
      5 C         142.6764  137.6597  159.7148 C.3     1  UNL1        0.1247
      6 C         142.8424  137.6795  161.2055 C.3     1  UNL1        0.0460
      7 C         141.7290  138.5007  161.7850 C.3     1  UNL1        0.0605
      8 C         140.8749  138.9886  160.6526 C.3     1  UNL1        0.0271
      9 O         139.1839  138.6990  158.1424 O.2     1  UNL1       -0.2748
     10 C         140.2444  139.2779  159.0314 C.2     1  UNL1        0.2274
     11 N         140.0888  140.6658  159.5787 N.am    1  UNL1       -0.2749
     12 C         138.8728  141.4748  159.2370 C.3     1  UNL1        0.1000
     13 C         138.7173  142.8627  159.7843 C.3     1  UNL1        0.0670
     14 C         139.7778  143.4416  160.6733 C.ar    1  UNL1        0.0583
     15 N         139.6222  144.8295  161.2207 N.ar    1  UNL1       -0.2484
     16 C         140.6826  145.4083  162.1097 C.ar    1  UNL1        0.1023
     17 C         141.8987  144.5992  162.4514 C.ar    1  UNL1        0.0902
     18 C         142.0542  143.2113  161.9041 C.ar    1  UNL1        0.0040
     19 C         140.9937  142.6325  161.0151 C.ar    1  UNL1        0.0113
     20 C         141.1493  141.2446  160.4677 C.3     1  UNL1        0.1213
     21 C         142.9591  145.1781  163.3404 C.3     1  UNL1        0.4200
     22 F         144.0195  145.7569  164.2295 F       1  UNL1       -0.1658
     23 F         144.0179  144.5229  162.5041 F       1  UNL1       -0.1658
     24 F         141.9003  145.8333  164.1768 F       1  UNL1       -0.1658
     25 N         141.5085  138.7844  163.2414 N.3     1  UNL1       -0.2738
     26 C         142.6208  138.5682  164.2244 C.3     1  UNL1        0.0724
     27 C         142.4003  138.8518  165.6807 C.3     1  UNL1        0.0217
     28 C         141.0676  139.3516  166.1541 C.3     1  UNL1        0.0251
     29 C         139.9554  139.5678  165.1711 C.3     1  UNL1        0.0217
     30 C         140.1758  139.2842  163.7148 C.3     1  UNL1        0.0724
     31 C         140.8472  139.6352  167.6105 C.ar    1  UNL1       -0.0224
     32 C         139.4829  140.0192  168.1016 C.ar    1  UNL1       -0.0043
     33 C         139.2624  140.3028  169.5580 C.ar    1  UNL1       -0.0003
     34 C         140.4063  140.2024  170.5231 C.ar    1  UNL1       -0.0000
     35 C         141.7706  139.8185  170.0320 C.ar    1  UNL1       -0.0003
     36 C         141.9910  139.5348  168.5757 C.ar    1  UNL1       -0.0043
@<TRIPOS>BOND
     1     9    10    2
     2    10    11   am
     3    11    12    1
     4    12    13    1
     5    13    14    1
     6    14    15   ar
     7    15    16   ar
     8    16    17   ar
     9    17    21    1
    10    21    22    1
    11    21    23    1
    12    21    24    1
    13    17    18   ar
    14    18    19   ar
    15    19    20    1
    16     1    10    1
    17     1     2    1
    18     2     3    1
    19     3     4    1
    20     4     5    1
    21     5     6    1
    22     6     7    1
    23     7    25    1
    24    25    26    1
    25    26    27    1
    26    27    28    1
    27    28    31    1
    28    31    32   ar
    29    32    33   ar
    30    33    34   ar
    31    34    35   ar
    32    35    36   ar
    33    28    29    1
    34    29    30    1
    35     7     8    1
    36    20    11    1
    37     5     1    1
    38    30    25    1
    39    19    14   ar
    40     8     1    1
    41    36    31   ar
