@<TRIPOS>MOLECULE
*****
 21 21 0 0 0
SMALL
GASTEIGER

@<TRIPOS>ATOM
      1 C         139.0453  137.7253  162.8331 C.3     1  UNL1        0.1498
      2 C         138.7804  138.0810  164.2660 C.1     1  UNL1       -0.0727
      3 C         138.5156  138.4367  165.6990 C.1     1  UNL1       -0.0849
      4 C         138.2508  138.7924  167.1319 C.3     1  UNL1        0.1023
      5 C         138.9600  139.9557  167.7594 C.ar    1  UNL1       -0.0091
      6 C         138.9222  140.1434  169.2471 C.ar    1  UNL1       -0.0024
      7 C         139.6314  141.3067  169.8745 C.ar    1  UNL1        0.0111
      8 C         140.3784  142.2824  169.0142 C.ar    1  UNL1        0.0577
      9 CL        141.0876  143.4457  169.6416 Cl      1  UNL1       -0.0822
     10 C         140.4161  142.0947  167.5265 C.ar    1  UNL1        0.0111
     11 C         139.7069  140.9314  166.8991 C.ar    1  UNL1       -0.0024
     12 N         140.4316  137.8484  162.2737 N.3     1  UNL1       -0.2618
     13 C         140.6408  138.4404  160.9113 C.3     1  UNL1        0.0730
     14 C         140.2236  139.8547  160.6360 C.3     1  UNL1        0.0188
     15 C         141.6087  137.3796  163.0765 C.3     1  UNL1        0.0730
     16 C         142.3405  138.3405  163.9659 C.3     1  UNL1        0.0174
     17 C         142.1547  138.2762  165.4530 C.3     1  UNL1        0.0014
     18 C         143.2610  138.7139  166.3667 C.3     1  UNL1        0.0000
     19 C         142.9735  139.6645  167.4908 C.3     1  UNL1        0.0000
     20 C         142.9137  139.8718  170.0799 C.3     1  UNL1        0.0000
     21 C         142.5401  139.1373  168.8265 C.3     1  UNL1        0.0000
@<TRIPOS>BOND
     1    20    21    1
     2    21    19    1
     3    19    18    1
     4    18    17    1
     5    17    16    1
     6    16    15    1
     7    15    12    1
     8    12    13    1
     9    13    14    1
    10    12     1    1
    11     1     2    1
    12     2     3    3
    13     3     4    1
    14     4     5    1
    15     5     6   ar
    16     6     7   ar
    17     7     8   ar
    18     8     9    1
    19     8    10   ar
    20    10    11   ar
    21    11     5   ar
@<TRIPOS>MOLECULE
*****
 21 21 0 0 0
SMALL
GASTEIGER

@<TRIPOS>ATOM
      1 C         139.8184  140.3436  169.9601 C.3     1  UNL1        0.1498
      2 C         139.3056  139.9336  168.6115 C.1     1  UNL1       -0.0727
      3 C         138.7927  139.5236  167.2628 C.1     1  UNL1       -0.0849
      4 C         138.2799  139.1135  165.9141 C.3     1  UNL1        0.1023
      5 C         139.2441  138.7688  164.8181 C.ar    1  UNL1       -0.0091
      6 C         140.1418  137.5751  164.9569 C.ar    1  UNL1       -0.0024
      7 C         141.1060  137.2303  163.8608 C.ar    1  UNL1        0.0111
      8 C         141.1727  138.0792  162.6260 C.ar    1  UNL1        0.0577
      9 CL        142.1369  137.7344  161.5300 Cl      1  UNL1       -0.0822
     10 C         140.2750  139.2729  162.4872 C.ar    1  UNL1        0.0111
     11 C         139.3108  139.6177  163.5833 C.ar    1  UNL1       -0.0024
     12 N         141.0966  141.1206  170.0720 N.3     1  UNL1       -0.2618
     13 C         141.0563  142.5980  170.3284 C.3     1  UNL1        0.0730
     14 C         140.4158  143.5153  169.3292 C.3     1  UNL1        0.0188
     15 C         142.4151  140.4202  169.9275 C.3     1  UNL1        0.0730
     16 C         142.5243  139.1972  169.0659 C.3     1  UNL1        0.0174
     17 C         142.8637  139.3326  167.6110 C.3     1  UNL1        0.0014
     18 C         142.3613  140.5107  166.8302 C.3     1  UNL1        0.0000
     19 C         142.5005  140.5352  165.3369 C.3     1  UNL1        0.0000
     20 C         144.4191  139.3104  164.0844 C.3     1  UNL1        0.0000
     21 C         143.8634  140.5549  164.7109 C.3     1  UNL1        0.0000
@<TRIPOS>BOND
     1    20    21    1
     2    21    19    1
     3    19    18    1
     4    18    17    1
     5    17    16    1
     6    16    15    1
     7    15    12    1
     8    12    13    1
     9    13    14    1
    10    12     1    1
    11     1     2    1
    12     2     3    3
    13     3     4    1
    14     4     5    1
    15     5     6   ar
    16     6     7   ar
    17     7     8   ar
    18     8     9    1
    19     8    10   ar
    20    10    11   ar
    21    11     5   ar
@<TRIPOS>MOLECULE
*****
 21 21 0 0 0
SMALL
GASTEIGER

@<TRIPOS>ATOM
      1 C         139.1163  137.7808  164.1236 C.3     1  UNL1        0.1498
      2 C         139.1398  138.5165  165.4305 C.1     1  UNL1       -0.0727
      3 C         139.1632  139.2522  166.7375 C.1     1  UNL1       -0.0849
      4 C         139.1867  139.9879  168.0445 C.3     1  UNL1        0.1023
      5 C         140.4582  140.6217  168.5256 C.ar    1  UNL1       -0.0091
      6 C         141.5882  139.7623  169.0099 C.ar    1  UNL1       -0.0024
      7 C         142.8597  140.3962  169.4910 C.ar    1  UNL1        0.0111
      8 C         143.0012  141.8894  169.4879 C.ar    1  UNL1        0.0577
      9 CL        144.2727  142.5233  169.9691 Cl      1  UNL1       -0.0822
     10 C         141.8713  142.7489  169.0037 C.ar    1  UNL1        0.0111
     11 C         140.5997  142.1150  168.5225 C.ar    1  UNL1       -0.0024
     12 N         140.1185  138.1127  163.0580 N.3     1  UNL1       -0.2618
     13 C         139.7430  139.0355  161.9366 C.3     1  UNL1        0.0730
     14 C         139.0522  138.4950  160.7198 C.3     1  UNL1        0.0188
     15 C         141.4960  137.5217  163.1137 C.3     1  UNL1        0.0730
     16 C         142.6464  138.3464  163.6102 C.3     1  UNL1        0.0174
     17 C         142.8694  138.5118  165.0844 C.3     1  UNL1        0.0014
     18 C         142.8890  139.8837  165.6907 C.3     1  UNL1        0.0000
     19 C         142.0048  140.9612  165.1365 C.3     1  UNL1        0.0000
     20 C         143.7266  142.7585  165.8817 C.3     1  UNL1        0.0000
     21 C         142.4116  142.4001  165.2553 C.3     1  UNL1        0.0000
@<TRIPOS>BOND
     1    20    21    1
     2    21    19    1
     3    19    18    1
     4    18    17    1
     5    17    16    1
     6    16    15    1
     7    15    12    1
     8    12    13    1
     9    13    14    1
    10    12     1    1
    11     1     2    1
    12     2     3    3
    13     3     4    1
    14     4     5    1
    15     5     6   ar
    16     6     7   ar
    17     7     8   ar
    18     8     9    1
    19     8    10   ar
    20    10    11   ar
    21    11     5   ar
@<TRIPOS>MOLECULE
*****
 21 21 0 0 0
SMALL
GASTEIGER

@<TRIPOS>ATOM
      1 C         139.7028  140.9018  169.5087 C.3     1  UNL1        0.1498
      2 C         139.2516  140.0911  168.3301 C.1     1  UNL1       -0.0727
      3 C         138.8003  139.2804  167.1514 C.1     1  UNL1       -0.0849
      4 C         138.3491  138.4698  165.9728 C.3     1  UNL1        0.1023
      5 C         139.2720  138.2602  164.8091 C.ar    1  UNL1       -0.0091
      6 C         140.7376  138.0440  165.0437 C.ar    1  UNL1       -0.0024
      7 C         141.6605  137.8344  163.8799 C.ar    1  UNL1        0.0111
      8 C         141.1178  137.8412  162.4816 C.ar    1  UNL1        0.0577
      9 CL        142.0407  137.6317  161.3178 Cl      1  UNL1       -0.0822
     10 C         139.6522  138.0575  162.2470 C.ar    1  UNL1        0.0111
     11 C         138.7293  138.2670  163.4108 C.ar    1  UNL1       -0.0024
     12 N         141.1565  141.2283  169.6821 N.3     1  UNL1       -0.2618
     13 C         142.0219  140.3611  170.5478 C.3     1  UNL1        0.0730
     14 C         142.4657  139.0154  170.0556 C.3     1  UNL1        0.0188
     15 C         141.7449  142.4218  168.9900 C.3     1  UNL1        0.0730
     16 C         142.7315  142.2321  167.8762 C.3     1  UNL1        0.0174
     17 C         142.4961  141.1757  166.8375 C.3     1  UNL1        0.0014
     18 C         141.6426  141.4771  165.6414 C.3     1  UNL1        0.0000
     19 C         141.0075  142.8280  165.4943 C.3     1  UNL1        0.0000
     20 C         138.7010  141.9796  164.6517 C.3     1  UNL1        0.0000
     21 C         139.5134  142.9538  165.4521 C.3     1  UNL1        0.0000
@<TRIPOS>BOND
     1    20    21    1
     2    21    19    1
     3    19    18    1
     4    18    17    1
     5    17    16    1
     6    16    15    1
     7    15    12    1
     8    12    13    1
     9    13    14    1
    10    12     1    1
    11     1     2    1
    12     2     3    3
    13     3     4    1
    14     4     5    1
    15     5     6   ar
    16     6     7   ar
    17     7     8   ar
    18     8     9    1
    19     8    10   ar
    20    10    11   ar
    21    11     5   ar
@<TRIPOS>MOLECULE
*****
 21 21 0 0 0
SMALL
GASTEIGER

@<TRIPOS>ATOM
      1 C         142.4344  139.4693  170.0063 C.3     1  UNL1        0.1498
      2 C         142.7681  139.1402  168.5815 C.1     1  UNL1       -0.0727
      3 C         143.1019  138.8112  167.1565 C.1     1  UNL1       -0.0849
      4 C         143.4357  138.4822  165.7317 C.3     1  UNL1        0.1023
      5 C         142.3571  138.4826  164.6893 C.ar    1  UNL1       -0.0091
      6 C         141.4468  137.2984  164.5515 C.ar    1  UNL1       -0.0024
      7 C         140.3681  137.2988  163.5092 C.ar    1  UNL1        0.0111
      8 C         140.1997  138.4834  162.6046 C.ar    1  UNL1        0.0577
      9 CL        139.1211  138.4838  161.5623 Cl      1  UNL1       -0.0822
     10 C         141.1100  139.6676  162.7424 C.ar    1  UNL1        0.0111
     11 C         142.1887  139.6672  163.7848 C.ar    1  UNL1       -0.0024
     12 N         141.4754  140.5808  170.3145 N.3     1  UNL1       -0.2618
     13 C         141.9789  141.8621  170.9103 C.3     1  UNL1        0.0730
     14 C         141.9991  143.1153  170.0863 C.3     1  UNL1        0.0188
     15 C         140.0131  140.4111  170.0270 C.3     1  UNL1        0.0730
     16 C         139.4759  140.7238  168.6619 C.3     1  UNL1        0.0174
     17 C         139.0874  139.6099  167.7354 C.3     1  UNL1        0.0014
     18 C         139.3436  139.7355  166.2628 C.3     1  UNL1        0.0000
     19 C         138.1992  139.9565  165.3186 C.3     1  UNL1        0.0000
     20 C         139.1116  142.3189  164.7387 C.3     1  UNL1        0.0000
     21 C         138.1485  141.1986  164.4794 C.3     1  UNL1        0.0000
@<TRIPOS>BOND
     1    20    21    1
     2    21    19    1
     3    19    18    1
     4    18    17    1
     5    17    16    1
     6    16    15    1
     7    15    12    1
     8    12    13    1
     9    13    14    1
    10    12     1    1
    11     1     2    1
    12     2     3    3
    13     3     4    1
    14     4     5    1
    15     5     6   ar
    16     6     7   ar
    17     7     8   ar
    18     8     9    1
    19     8    10   ar
    20    10    11   ar
    21    11     5   ar
@<TRIPOS>MOLECULE
*****
 21 21 0 0 0
SMALL
GASTEIGER

@<TRIPOS>ATOM
      1 C         140.5450  143.2502  162.5427 C.3     1  UNL1        0.1498
      2 C         141.3360  142.8086  163.7381 C.1     1  UNL1       -0.0727
      3 C         142.1271  142.3669  164.9337 C.1     1  UNL1       -0.0849
      4 C         142.9182  141.9253  166.1291 C.3     1  UNL1        0.1023
      5 C         142.2107  141.4285  167.3549 C.ar    1  UNL1       -0.0091
      6 C         142.6047  140.1179  167.9689 C.ar    1  UNL1       -0.0024
      7 C         141.8971  139.6211  169.1947 C.ar    1  UNL1        0.0111
      8 C         140.7955  140.4348  169.8064 C.ar    1  UNL1        0.0577
      9 CL        140.0880  139.9380  171.0322 Cl      1  UNL1       -0.0822
     10 C         140.4015  141.7454  169.1924 C.ar    1  UNL1        0.0111
     11 C         141.1091  142.2423  167.9666 C.ar    1  UNL1       -0.0024
     12 N         139.1123  143.6646  162.7028 N.3     1  UNL1       -0.2618
     13 C         138.7640  144.8425  163.5639 C.3     1  UNL1        0.0730
     14 C         138.4627  144.6441  165.0199 C.3     1  UNL1        0.0188
     15 C         138.0279  142.9013  162.0018 C.3     1  UNL1        0.0730
     16 C         137.7557  141.4736  162.3728 C.3     1  UNL1        0.0174
     17 C         137.7883  141.0534  163.8124 C.3     1  UNL1        0.0014
     18 C         138.5185  139.8060  164.2132 C.3     1  UNL1        0.0000
     19 C         139.4172  139.8161  165.4141 C.3     1  UNL1        0.0000
     20 C         137.7344  138.5127  166.9040 C.3     1  UNL1        0.0000
     21 C         138.8614  139.4934  166.7695 C.3     1  UNL1        0.0000
@<TRIPOS>BOND
     1    20    21    1
     2    21    19    1
     3    19    18    1
     4    18    17    1
     5    17    16    1
     6    16    15    1
     7    15    12    1
     8    12    13    1
     9    13    14    1
    10    12     1    1
    11     1     2    1
    12     2     3    3
    13     3     4    1
    14     4     5    1
    15     5     6   ar
    16     6     7   ar
    17     7     8   ar
    18     8     9    1
    19     8    10   ar
    20    10    11   ar
    21    11     5   ar
@<TRIPOS>MOLECULE
*****
 21 21 0 0 0
SMALL
GASTEIGER

@<TRIPOS>ATOM
      1 C         142.2827  139.7660  169.3844 C.3     1  UNL1        0.1498
      2 C         142.6590  139.3463  167.9944 C.1     1  UNL1       -0.0727
      3 C         143.0353  138.9267  166.6043 C.1     1  UNL1       -0.0849
      4 C         143.4115  138.5071  165.2142 C.3     1  UNL1        0.1023
      5 C         143.7983  139.5401  164.1977 C.ar    1  UNL1       -0.0091
      6 C         142.9024  139.8111  163.0256 C.ar    1  UNL1       -0.0024
      7 C         143.2892  140.8442  162.0091 C.ar    1  UNL1        0.0111
      8 C         144.5718  141.6062  162.1647 C.ar    1  UNL1        0.0577
      9 CL        144.9585  142.6392  161.1482 Cl      1  UNL1       -0.0822
     10 C         145.4676  141.3351  163.3368 C.ar    1  UNL1        0.0111
     11 C         145.0809  140.3021  164.3533 C.ar    1  UNL1       -0.0024
     12 N         141.4034  140.9629  169.5944 N.3     1  UNL1       -0.2618
     13 C         140.1901  140.8579  170.4702 C.3     1  UNL1        0.0730
     14 C         138.9030  140.3309  169.9085 C.3     1  UNL1        0.0188
     15 C         141.7373  142.2649  168.9286 C.3     1  UNL1        0.0730
     16 C         140.7226  142.9435  168.0570 C.3     1  UNL1        0.0174
     17 C         140.6354  142.5989  166.5996 C.3     1  UNL1        0.0014
     18 C         141.8867  142.3400  165.8140 C.3     1  UNL1        0.0000
     19 C         142.2068  143.1819  164.6146 C.3     1  UNL1        0.0000
     20 C         143.6115  145.0809  163.5326 C.3     1  UNL1        0.0000
     21 C         143.4174  144.0676  164.6214 C.3     1  UNL1        0.0000
@<TRIPOS>BOND
     1    20    21    1
     2    21    19    1
     3    19    18    1
     4    18    17    1
     5    17    16    1
     6    16    15    1
     7    15    12    1
     8    12    13    1
     9    13    14    1
    10    12     1    1
    11     1     2    1
    12     2     3    3
    13     3     4    1
    14     4     5    1
    15     5     6   ar
    16     6     7   ar
    17     7     8   ar
    18     8     9    1
    19     8    10   ar
    20    10    11   ar
    21    11     5   ar
@<TRIPOS>MOLECULE
*****
 21 21 0 0 0
SMALL
GASTEIGER

@<TRIPOS>ATOM
      1 C         141.7171  138.0300  163.4966 C.3     1  UNL1        0.1498
      2 C         142.1231  138.4366  164.8822 C.1     1  UNL1       -0.0727
      3 C         142.5291  138.8432  166.2678 C.1     1  UNL1       -0.0849
      4 C         142.9352  139.2498  167.6533 C.3     1  UNL1        0.1023
      5 C         142.1288  140.2688  168.4026 C.ar    1  UNL1       -0.0091
      6 C         142.7620  141.5597  168.8298 C.ar    1  UNL1       -0.0024
      7 C         141.9556  142.5787  169.5790 C.ar    1  UNL1        0.0111
      8 C         140.5161  142.3069  169.9010 C.ar    1  UNL1        0.0577
      9 CL        139.7097  143.3259  170.6503 Cl      1  UNL1       -0.0822
     10 C         139.8829  141.0160  169.4738 C.ar    1  UNL1        0.0111
     11 C         140.6893  139.9969  168.7246 C.ar    1  UNL1       -0.0024
     12 N         140.3078  138.2510  163.0328 N.3     1  UNL1       -0.2618
     13 C         140.0432  139.0555  161.7946 C.3     1  UNL1        0.0730
     14 C         139.3393  138.4274  160.6284 C.3     1  UNL1        0.0188
     15 C         139.1632  137.6677  163.8070 C.3     1  UNL1        0.0730
     16 C         138.7053  138.3225  165.0765 C.3     1  UNL1        0.0174
     17 C         138.2964  139.7657  165.0708 C.3     1  UNL1        0.0014
     18 C         139.1544  140.7910  165.7509 C.3     1  UNL1        0.0000
     19 C         140.1274  141.6050  164.9505 C.3     1  UNL1        0.0000
     20 C         142.5314  142.5150  165.3282 C.3     1  UNL1        0.0000
     21 C         141.0654  142.5479  165.6441 C.3     1  UNL1        0.0000
@<TRIPOS>BOND
     1    20    21    1
     2    21    19    1
     3    19    18    1
     4    18    17    1
     5    17    16    1
     6    16    15    1
     7    15    12    1
     8    12    13    1
     9    13    14    1
    10    12     1    1
    11     1     2    1
    12     2     3    3
    13     3     4    1
    14     4     5    1
    15     5     6   ar
    16     6     7   ar
    17     7     8   ar
    18     8     9    1
    19     8    10   ar
    20    10    11   ar
    21    11     5   ar
@<TRIPOS>MOLECULE
*****
 21 21 0 0 0
SMALL
GASTEIGER

@<TRIPOS>ATOM
      1 C         143.8107  138.8796  163.9206 C.3     1  UNL1        0.1498
      2 C         143.4041  138.9940  165.3599 C.1     1  UNL1       -0.0727
      3 C         142.9974  139.1084  166.7992 C.1     1  UNL1       -0.0849
      4 C         142.5907  139.2227  168.2385 C.3     1  UNL1        0.1023
      5 C         141.9882  140.4982  168.7485 C.ar    1  UNL1       -0.0091
      6 C         140.5064  140.5956  168.9600 C.ar    1  UNL1       -0.0024
      7 C         139.9039  141.8711  169.4701 C.ar    1  UNL1        0.0111
      8 C         140.7831  143.0491  169.7686 C.ar    1  UNL1        0.0577
      9 CL        140.1806  144.3246  170.2787 Cl      1  UNL1       -0.0822
     10 C         142.2649  142.9516  169.5572 C.ar    1  UNL1        0.0111
     11 C         142.8674  141.6762  169.0471 C.ar    1  UNL1       -0.0024
     12 N         143.6440  140.0511  162.9988 N.3     1  UNL1       -0.2618
     13 C         144.8516  140.7593  162.4599 C.3     1  UNL1        0.0730
     14 C         145.5286  141.8173  163.2798 C.3     1  UNL1        0.0188
     15 C         142.2697  140.5145  162.6158 C.3     1  UNL1        0.0730
     16 C         141.6475  141.6817  163.3232 C.3     1  UNL1        0.0174
     17 C         141.0306  141.4958  164.6778 C.3     1  UNL1        0.0014
     18 C         141.1611  142.5712  165.7154 C.3     1  UNL1        0.0000
     19 C         139.9496  143.3367  166.1585 C.3     1  UNL1        0.0000
     20 C         137.9524  143.8281  164.5712 C.3     1  UNL1        0.0000
     21 C         139.2476  144.2509  165.1987 C.3     1  UNL1        0.0000
@<TRIPOS>BOND
     1    20    21    1
     2    21    19    1
     3    19    18    1
     4    18    17    1
     5    17    16    1
     6    16    15    1
     7    15    12    1
     8    12    13    1
     9    13    14    1
    10    12     1    1
    11     1     2    1
    12     2     3    3
    13     3     4    1
    14     4     5    1
    15     5     6   ar
    16     6     7   ar
    17     7     8   ar
    18     8     9    1
    19     8    10   ar
    20    10    11   ar
    21    11     5   ar
