@<TRIPOS>MOLECULE
*****
 35 39 0 0 0
SMALL
GASTEIGER

@<TRIPOS>ATOM
      1 N         143.1006  144.0583  162.4326 N.3     1  UNL1       -0.2703
      2 C         142.4341  144.6793  163.6243 C.3     1  UNL1        0.0736
      3 C         140.9901  145.0788  163.5524 C.3     1  UNL1        0.0331
      4 C         140.2125  144.8573  162.2889 C.3     1  UNL1        0.0570
      5 C         140.8791  144.2362  161.0972 C.3     1  UNL1        0.0331
      6 C         142.3232  143.8367  161.1691 C.3     1  UNL1        0.0736
      7 N         138.7686  145.2568  162.2170 N.3     1  UNL1       -0.2947
      8 H         138.4981  145.2080  161.2347 H       1  UNL1        0.1235
      9 C         137.7381  144.4870  162.9887 C.3     1  UNL1        0.0957
     10 C         137.9348  143.0230  163.2488 C.ar    1  UNL1       -0.0032
     11 C         138.0809  142.5242  164.6559 C.ar    1  UNL1        0.0004
     12 C         138.2777  141.0601  164.9160 C.ar    1  UNL1        0.0398
     13 C         138.3284  140.0947  163.7691 C.ar    1  UNL1        0.1724
     14 C         138.1823  140.5935  162.3620 C.ar    1  UNL1        0.1721
     15 C         137.9855  142.0576  162.1018 C.ar    1  UNL1        0.0371
     16 O         138.2330  139.6281  161.2150 O.3     1  UNL1       -0.4684
     17 C         138.4298  138.1640  161.4751 C.3     1  UNL1        0.2526
     18 C         138.5758  137.6652  162.8823 C.3     1  UNL1        0.2526
     19 O         138.5251  138.6306  164.0292 O.3     1  UNL1       -0.4684
     20 C         144.5446  143.6587  162.5045 C.3     1  UNL1        0.1063
     21 C         144.9188  142.2743  162.9444 C.3     1  UNL1        0.1487
     22 O         146.3600  141.9207  163.1630 O.3     1  UNL1       -0.3786
     23 H         146.9146  142.6946  162.9774 H       1  UNL1        0.2108
     24 C         143.0352  141.8219  167.0061 C.ar    1  UNL1        0.1388
     25 C         141.9681  140.7912  167.2273 C.ar    1  UNL1        0.0384
     26 C         141.5290  139.9113  166.0947 C.ar    1  UNL1        0.0222
     27 C         142.1568  140.0620  164.7408 C.ar    1  UNL1        0.0813
     28 N         141.7176  139.1821  163.6082 N.ar    1  UNL1       -0.2439
     29 C         142.3455  139.3329  162.2543 C.ar    1  UNL1        0.0986
     30 C         143.4126  140.3637  162.0330 C.ar    1  UNL1        0.0188
     31 C         143.8518  141.2436  163.1657 C.ar    1  UNL1        0.0087
     32 C         143.2238  141.0928  164.5196 C.ar    1  UNL1        0.0190
     33 C         143.6630  141.9727  165.6522 C.ar    1  UNL1        0.0382
     34 C         143.5856  142.1403  169.5251 C.3     1  UNL1        0.2525
     35 O         143.4743  142.7019  168.1387 O.3     1  UNL1       -0.4714
@<TRIPOS>BOND
     1    34    35    1
     2    35    24    1
     3    24    25   ar
     4    25    26   ar
     5    26    27   ar
     6    27    28   ar
     7    28    29   ar
     8    29    30   ar
     9    30    31   ar
    10    31    21    1
    11    21    22    1
    12    21    20    1
    13    20     1    1
    14     1     2    1
    15     2     3    1
    16     3     4    1
    17     4     7    1
    18     7     9    1
    19     9    10    1
    20    10    11   ar
    21    11    12   ar
    22    12    13   ar
    23    13    14   ar
    24    14    15   ar
    25    14    16    1
    26    16    17    1
    27    17    18    1
    28    18    19    1
    29     4     5    1
    30     5     6    1
    31    31    32   ar
    32    32    33   ar
    33    33    24   ar
    34    32    27   ar
    35     6     1    1
    36    15    10   ar
    37    19    13    1
    38    22    23    1
    39     7     8    1
@<TRIPOS>MOLECULE
*****
 35 39 0 0 0
SMALL
GASTEIGER

@<TRIPOS>ATOM
      1 N         143.0882  144.1398  162.5403 N.3     1  UNL1       -0.2703
      2 C         142.2535  143.5244  161.4565 C.3     1  UNL1        0.0736
      3 C         140.7928  143.8511  161.3580 C.3     1  UNL1        0.0331
      4 C         140.1669  144.7932  162.3433 C.3     1  UNL1        0.0570
      5 C         141.0016  145.4085  163.4270 C.3     1  UNL1        0.0331
      6 C         142.4623  145.0818  163.5255 C.3     1  UNL1        0.0736
      7 N         138.7062  145.1199  162.2447 N.3     1  UNL1       -0.2947
      8 H         138.4418  144.9947  161.2676 H       1  UNL1        0.1235
      9 C         137.7096  144.3550  163.0644 C.3     1  UNL1        0.0957
     10 C         137.9470  142.9066  163.3739 C.ar    1  UNL1       -0.0032
     11 C         138.3452  142.4911  164.7591 C.ar    1  UNL1        0.0004
     12 C         138.5825  141.0427  165.0686 C.ar    1  UNL1        0.0398
     13 C         138.4216  140.0098  163.9929 C.ar    1  UNL1        0.1724
     14 C         138.0234  140.4252  162.6077 C.ar    1  UNL1        0.1721
     15 C         137.7861  141.8737  162.2982 C.ar    1  UNL1        0.0371
     16 O         137.8626  139.3923  161.5320 O.3     1  UNL1       -0.4684
     17 C         138.0999  137.9439  161.8415 C.3     1  UNL1        0.2526
     18 C         138.4981  137.5284  163.2268 C.3     1  UNL1        0.2526
     19 O         138.6590  138.5613  164.3025 O.3     1  UNL1       -0.4684
     20 C         144.5489  143.8131  162.6388 C.3     1  UNL1        0.1063
     21 C         144.9981  142.6131  163.4188 C.3     1  UNL1        0.1487
     22 O         146.2393  141.8758  163.0118 O.3     1  UNL1       -0.3786
     23 H         146.6275  142.3020  162.2318 H       1  UNL1        0.2108
     24 C         142.8529  138.6595  163.2899 C.ar    1  UNL1        0.1388
     25 C         142.0609  138.1969  164.4768 C.ar    1  UNL1        0.0384
     26 C         141.9839  139.0522  165.7067 C.ar    1  UNL1        0.0222
     27 C         142.6990  140.3701  165.7497 C.ar    1  UNL1        0.0813
     28 N         142.6221  141.2254  166.9795 N.ar    1  UNL1       -0.2439
     29 C         143.3371  142.5432  167.0225 C.ar    1  UNL1        0.0986
     30 C         144.1292  143.0059  165.8355 C.ar    1  UNL1        0.0188
     31 C         144.2061  142.1506  164.6057 C.ar    1  UNL1        0.0087
     32 C         143.4910  140.8326  164.5628 C.ar    1  UNL1        0.0190
     33 C         143.5679  139.9773  163.3329 C.ar    1  UNL1        0.0382
     34 C         143.9467  138.1055  160.9994 C.3     1  UNL1        0.2525
     35 O         142.9298  137.8042  162.0601 O.3     1  UNL1       -0.4714
@<TRIPOS>BOND
     1    34    35    1
     2    35    24    1
     3    24    25   ar
     4    25    26   ar
     5    26    27   ar
     6    27    28   ar
     7    28    29   ar
     8    29    30   ar
     9    30    31   ar
    10    31    21    1
    11    21    22    1
    12    21    20    1
    13    20     1    1
    14     1     2    1
    15     2     3    1
    16     3     4    1
    17     4     7    1
    18     7     9    1
    19     9    10    1
    20    10    11   ar
    21    11    12   ar
    22    12    13   ar
    23    13    14   ar
    24    14    15   ar
    25    14    16    1
    26    16    17    1
    27    17    18    1
    28    18    19    1
    29     4     5    1
    30     5     6    1
    31    31    32   ar
    32    32    33   ar
    33    33    24   ar
    34    32    27   ar
    35     6     1    1
    36    15    10   ar
    37    19    13    1
    38    22    23    1
    39     7     8    1
@<TRIPOS>MOLECULE
*****
 35 39 0 0 0
SMALL
GASTEIGER

@<TRIPOS>ATOM
      1 N         141.9581  138.0088  163.5369 N.3     1  UNL1       -0.2703
      2 C         142.5375  138.3067  162.1858 C.3     1  UNL1        0.0736
      3 C         143.7526  139.1780  162.0663 C.3     1  UNL1        0.0331
      4 C         144.3883  139.7515  163.2980 C.3     1  UNL1        0.0570
      5 C         143.8089  139.4536  164.6492 C.3     1  UNL1        0.0331
      6 C         142.5938  138.5822  164.7686 C.3     1  UNL1        0.0736
      7 N         145.6034  140.6228  163.1786 N.3     1  UNL1       -0.2947
      8 H         145.8642  140.6308  162.1925 H       1  UNL1        0.1235
      9 C         145.5464  142.0543  163.6230 C.3     1  UNL1        0.0957
     10 C         144.3145  142.8708  163.3666 C.ar    1  UNL1       -0.0032
     11 C         143.4627  143.3241  164.5151 C.ar    1  UNL1        0.0004
     12 C         142.2308  144.1405  164.2587 C.ar    1  UNL1        0.0398
     13 C         141.8506  144.5037  162.8539 C.ar    1  UNL1        0.1724
     14 C         142.7024  144.0505  161.7054 C.ar    1  UNL1        0.1721
     15 C         143.9344  143.2340  161.9618 C.ar    1  UNL1        0.0371
     16 O         142.3223  144.4137  160.3006 O.3     1  UNL1       -0.4684
     17 C         141.0904  145.2302  160.0442 C.3     1  UNL1        0.2526
     18 C         140.2386  145.6835  161.1927 C.3     1  UNL1        0.2526
     19 O         140.6187  145.3202  162.5976 O.3     1  UNL1       -0.4684
     20 C         140.7430  137.1374  163.6564 C.3     1  UNL1        0.1063
     21 C         139.4355  137.7294  164.0922 C.3     1  UNL1        0.1487
     22 O         138.7813  137.2545  165.3558 O.3     1  UNL1       -0.3786
     23 H         139.3305  136.5683  165.7661 H       1  UNL1        0.2108
     24 C         139.4255  141.9962  165.5221 C.ar    1  UNL1        0.1388
     25 C         138.7721  143.0630  164.6944 C.ar    1  UNL1        0.0384
     26 C         138.1221  142.7075  163.3901 C.ar    1  UNL1        0.0222
     27 C         138.1255  141.2853  162.9135 C.ar    1  UNL1        0.0813
     28 N         137.4755  140.9298  161.6092 N.ar    1  UNL1       -0.2439
     29 C         137.4788  139.5076  161.1326 C.ar    1  UNL1        0.0986
     30 C         138.1321  138.4407  161.9603 C.ar    1  UNL1        0.0188
     31 C         138.7821  138.7962  163.2646 C.ar    1  UNL1        0.0087
     32 C         138.7788  140.2185  163.7412 C.ar    1  UNL1        0.0190
     33 C         139.4288  140.5739  165.0455 C.ar    1  UNL1        0.0382
     34 C         141.4025  141.7546  167.1903 C.3     1  UNL1        0.2525
     35 O         140.0755  142.3516  166.8264 O.3     1  UNL1       -0.4714
@<TRIPOS>BOND
     1    34    35    1
     2    35    24    1
     3    24    25   ar
     4    25    26   ar
     5    26    27   ar
     6    27    28   ar
     7    28    29   ar
     8    29    30   ar
     9    30    31   ar
    10    31    21    1
    11    21    22    1
    12    21    20    1
    13    20     1    1
    14     1     2    1
    15     2     3    1
    16     3     4    1
    17     4     7    1
    18     7     9    1
    19     9    10    1
    20    10    11   ar
    21    11    12   ar
    22    12    13   ar
    23    13    14   ar
    24    14    15   ar
    25    14    16    1
    26    16    17    1
    27    17    18    1
    28    18    19    1
    29     4     5    1
    30     5     6    1
    31    31    32   ar
    32    32    33   ar
    33    33    24   ar
    34    32    27   ar
    35     6     1    1
    36    15    10   ar
    37    19    13    1
    38    22    23    1
    39     7     8    1
@<TRIPOS>MOLECULE
*****
 35 39 0 0 0
SMALL
GASTEIGER

@<TRIPOS>ATOM
      1 N         137.9257  142.9626  163.0415 N.3     1  UNL1       -0.2703
      2 C         137.7133  141.8223  163.9926 C.3     1  UNL1        0.0736
      3 C         137.6777  140.4136  163.4786 C.3     1  UNL1        0.0331
      4 C         137.8546  140.1452  162.0134 C.3     1  UNL1        0.0570
      5 C         138.0670  141.2854  161.0623 C.3     1  UNL1        0.0331
      6 C         138.1025  142.6942  161.5764 C.3     1  UNL1        0.0736
      7 N         137.8190  138.7365  161.4994 N.3     1  UNL1       -0.2947
      8 H         137.2663  138.7496  160.6423 H       1  UNL1        0.1235
      9 C         139.0987  138.0226  161.1786 C.3     1  UNL1        0.0957
     10 C         140.3051  138.2186  162.0480 C.ar    1  UNL1       -0.0032
     11 C         140.4384  137.4510  163.3300 C.ar    1  UNL1        0.0004
     12 C         141.6449  137.6470  164.1994 C.ar    1  UNL1        0.0398
     13 C         142.7181  138.6104  163.7871 C.ar    1  UNL1        0.1724
     14 C         142.5849  139.3779  162.5052 C.ar    1  UNL1        0.1721
     15 C         141.3784  139.1820  161.6357 C.ar    1  UNL1        0.0371
     16 O         143.6581  140.3413  162.0929 O.3     1  UNL1       -0.4684
     17 C         144.8645  140.5372  162.9623 C.3     1  UNL1        0.2526
     18 C         144.9978  139.7697  164.2443 C.3     1  UNL1        0.2526
     19 O         143.9246  138.8063  164.6566 O.3     1  UNL1       -0.4684
     20 C         137.9612  144.3713  163.5555 C.3     1  UNL1        0.1063
     21 C         138.9465  144.7571  164.6188 C.3     1  UNL1        0.1487
     22 O         138.4821  145.4944  165.8397 O.3     1  UNL1       -0.3786
     23 H         137.5249  145.6413  165.7841 H       1  UNL1        0.2108
     24 C         140.8011  141.6200  167.2586 C.ar    1  UNL1        0.1388
     25 C         142.2507  141.2685  167.1009 C.ar    1  UNL1        0.0384
     26 C         143.0822  141.9627  166.0633 C.ar    1  UNL1        0.0222
     27 C         142.4641  143.0084  165.1833 C.ar    1  UNL1        0.0813
     28 N         143.2955  143.7026  164.1456 N.ar    1  UNL1       -0.2439
     29 C         142.6774  144.7483  163.2657 C.ar    1  UNL1        0.0986
     30 C         141.2276  145.0998  163.4234 C.ar    1  UNL1        0.0188
     31 C         140.3962  144.4056  164.4611 C.ar    1  UNL1        0.0087
     32 C         141.0144  143.3599  165.3410 C.ar    1  UNL1        0.0190
     33 C         140.1829  142.6657  166.3787 C.ar    1  UNL1        0.0382
     34 C         140.6235  140.0250  169.3018 C.3     1  UNL1        0.2525
     35 O         139.9696  140.9258  168.2963 O.3     1  UNL1       -0.4714
@<TRIPOS>BOND
     1    34    35    1
     2    35    24    1
     3    24    25   ar
     4    25    26   ar
     5    26    27   ar
     6    27    28   ar
     7    28    29   ar
     8    29    30   ar
     9    30    31   ar
    10    31    21    1
    11    21    22    1
    12    21    20    1
    13    20     1    1
    14     1     2    1
    15     2     3    1
    16     3     4    1
    17     4     7    1
    18     7     9    1
    19     9    10    1
    20    10    11   ar
    21    11    12   ar
    22    12    13   ar
    23    13    14   ar
    24    14    15   ar
    25    14    16    1
    26    16    17    1
    27    17    18    1
    28    18    19    1
    29     4     5    1
    30     5     6    1
    31    31    32   ar
    32    32    33   ar
    33    33    24   ar
    34    32    27   ar
    35     6     1    1
    36    15    10   ar
    37    19    13    1
    38    22    23    1
    39     7     8    1
@<TRIPOS>MOLECULE
*****
 35 39 0 0 0
SMALL
GASTEIGER

@<TRIPOS>ATOM
      1 N         143.0766  143.9701  162.4146 N.3     1  UNL1       -0.2703
      2 C         142.4528  144.7475  163.5356 C.3     1  UNL1        0.0736
      3 C         140.9972  145.1056  163.4807 C.3     1  UNL1        0.0331
      4 C         140.1655  144.6864  162.3049 C.3     1  UNL1        0.0570
      5 C         140.7893  143.9090  161.1840 C.3     1  UNL1        0.0331
      6 C         142.2450  143.5509  161.2389 C.3     1  UNL1        0.0736
      7 N         138.7099  145.0446  162.2500 N.3     1  UNL1       -0.2947
      8 H         138.4257  144.9731  161.2730 H       1  UNL1        0.1235
      9 C         137.7134  144.2584  163.0494 C.3     1  UNL1        0.0957
     10 C         137.9003  142.7821  163.2378 C.ar    1  UNL1       -0.0032
     11 C         137.8249  141.8598  162.0572 C.ar    1  UNL1        0.0004
     12 C         138.0118  140.3835  162.2457 C.ar    1  UNL1        0.0398
     13 C         138.2741  139.8294  163.6147 C.ar    1  UNL1        0.1724
     14 C         138.3495  140.7517  164.7953 C.ar    1  UNL1        0.1721
     15 C         138.1626  142.2280  164.6069 C.ar    1  UNL1        0.0371
     16 O         138.6118  140.1976  166.1643 O.3     1  UNL1       -0.4684
     17 C         138.7987  138.7213  166.3527 C.3     1  UNL1        0.2526
     18 C         138.7232  137.7990  165.1721 C.3     1  UNL1        0.2526
     19 O         138.4609  138.3530  163.8031 O.3     1  UNL1       -0.4684
     20 C         144.5322  143.6119  162.4695 C.3     1  UNL1        0.1063
     21 C         144.9593  142.2948  163.0464 C.3     1  UNL1        0.1487
     22 O         146.4029  141.8896  163.0029 O.3     1  UNL1       -0.3786
     23 H         146.9215  142.5869  162.5720 H       1  UNL1        0.2108
     24 C         143.1380  138.9723  160.6186 C.ar    1  UNL1        0.1388
     25 C         142.1215  138.0604  161.2391 C.ar    1  UNL1        0.0384
     26 C         141.7121  138.2559  162.6688 C.ar    1  UNL1        0.0222
     27 C         142.3191  139.3633  163.4781 C.ar    1  UNL1        0.0813
     28 N         141.9097  139.5588  164.9078 N.ar    1  UNL1       -0.2439
     29 C         142.5168  140.6663  165.7171 C.ar    1  UNL1        0.0986
     30 C         143.5333  141.5783  165.0966 C.ar    1  UNL1        0.0188
     31 C         143.9428  141.3828  163.6669 C.ar    1  UNL1        0.0087
     32 C         143.3356  140.2753  162.8576 C.ar    1  UNL1        0.0190
     33 C         143.7451  140.0798  161.4279 C.ar    1  UNL1        0.0382
     34 C         142.7585  137.8603  158.3015 C.3     1  UNL1        0.2525
     35 O         143.5474  138.7768  159.1889 O.3     1  UNL1       -0.4714
@<TRIPOS>BOND
     1    34    35    1
     2    35    24    1
     3    24    25   ar
     4    25    26   ar
     5    26    27   ar
     6    27    28   ar
     7    28    29   ar
     8    29    30   ar
     9    30    31   ar
    10    31    21    1
    11    21    22    1
    12    21    20    1
    13    20     1    1
    14     1     2    1
    15     2     3    1
    16     3     4    1
    17     4     7    1
    18     7     9    1
    19     9    10    1
    20    10    11   ar
    21    11    12   ar
    22    12    13   ar
    23    13    14   ar
    24    14    15   ar
    25    14    16    1
    26    16    17    1
    27    17    18    1
    28    18    19    1
    29     4     5    1
    30     5     6    1
    31    31    32   ar
    32    32    33   ar
    33    33    24   ar
    34    32    27   ar
    35     6     1    1
    36    15    10   ar
    37    19    13    1
    38    22    23    1
    39     7     8    1
@<TRIPOS>MOLECULE
*****
 35 39 0 0 0
SMALL
GASTEIGER

@<TRIPOS>ATOM
      1 N         142.9290  141.3305  166.1480 N.3     1  UNL1       -0.2703
      2 C         143.1440  142.0423  164.8453 C.3     1  UNL1        0.0736
      3 C         143.6708  141.2916  163.6584 C.3     1  UNL1        0.0331
      4 C         143.9826  139.8289  163.7742 C.3     1  UNL1        0.0570
      5 C         143.7676  139.1170  165.0769 C.3     1  UNL1        0.0331
      6 C         143.2408  139.8679  166.2638 C.3     1  UNL1        0.0736
      7 N         144.5094  139.0781  162.5873 N.3     1  UNL1       -0.2947
      8 H         145.3737  138.6256  162.8850 H       1  UNL1        0.1235
      9 C         143.6690  138.0202  161.9356 C.3     1  UNL1        0.0957
     10 C         142.1815  138.1925  161.8477 C.ar    1  UNL1       -0.0032
     11 C         141.2856  137.4828  162.8192 C.ar    1  UNL1        0.0004
     12 C         139.7981  137.6551  162.7313 C.ar    1  UNL1        0.0398
     13 C         139.2066  138.5372  161.6720 C.ar    1  UNL1        0.1724
     14 C         140.1024  139.2468  160.7006 C.ar    1  UNL1        0.1721
     15 C         141.5900  139.0745  160.7884 C.ar    1  UNL1        0.0371
     16 O         139.5109  140.1289  159.6413 O.3     1  UNL1       -0.4684
     17 C         138.0234  140.3012  159.5534 C.3     1  UNL1        0.2526
     18 C         137.1275  139.5915  160.5249 C.3     1  UNL1        0.2526
     19 O         137.7190  138.7095  161.5842 O.3     1  UNL1       -0.4684
     20 C         142.4023  142.0813  167.3349 C.3     1  UNL1        0.1063
     21 C         140.9227  142.2322  167.5307 C.3     1  UNL1        0.1487
     22 O         140.3947  143.2339  168.5145 O.3     1  UNL1       -0.3786
     23 H         141.1366  143.6961  168.9350 H       1  UNL1        0.2108
     24 C         138.9274  143.8990  163.8578 C.ar    1  UNL1        0.1388
     25 C         137.9759  143.0483  163.0697 C.ar    1  UNL1        0.0384
     26 C         137.6896  141.6420  163.5060 C.ar    1  UNL1        0.0222
     27 C         138.3547  141.0864  164.7303 C.ar    1  UNL1        0.0813
     28 N         138.0684  139.6801  165.1666 N.ar    1  UNL1       -0.2439
     29 C         138.7335  139.1245  166.3908 C.ar    1  UNL1        0.0986
     30 C         139.6850  139.9752  167.1789 C.ar    1  UNL1        0.0188
     31 C         139.9713  141.3815  166.7427 C.ar    1  UNL1        0.0087
     32 C         139.3061  141.9371  165.5183 C.ar    1  UNL1        0.0190
     33 C         139.5925  143.3434  165.0820 C.ar    1  UNL1        0.0382
     34 C         140.0629  145.5568  162.2109 C.3     1  UNL1        0.2525
     35 O         139.2137  145.3053  163.4215 O.3     1  UNL1       -0.4714
@<TRIPOS>BOND
     1    34    35    1
     2    35    24    1
     3    24    25   ar
     4    25    26   ar
     5    26    27   ar
     6    27    28   ar
     7    28    29   ar
     8    29    30   ar
     9    30    31   ar
    10    31    21    1
    11    21    22    1
    12    21    20    1
    13    20     1    1
    14     1     2    1
    15     2     3    1
    16     3     4    1
    17     4     7    1
    18     7     9    1
    19     9    10    1
    20    10    11   ar
    21    11    12   ar
    22    12    13   ar
    23    13    14   ar
    24    14    15   ar
    25    14    16    1
    26    16    17    1
    27    17    18    1
    28    18    19    1
    29     4     5    1
    30     5     6    1
    31    31    32   ar
    32    32    33   ar
    33    33    24   ar
    34    32    27   ar
    35     6     1    1
    36    15    10   ar
    37    19    13    1
    38    22    23    1
    39     7     8    1
@<TRIPOS>MOLECULE
*****
 35 39 0 0 0
SMALL
GASTEIGER

@<TRIPOS>ATOM
      1 N         141.6822  138.2011  164.5804 N.3     1  UNL1       -0.2703
      2 C         140.2647  138.2101  165.0710 C.3     1  UNL1        0.0736
      3 C         139.1349  138.0180  164.1033 C.3     1  UNL1        0.0331
      4 C         139.4224  137.8170  162.6449 C.3     1  UNL1        0.0570
      5 C         140.8399  137.8080  162.1542 C.3     1  UNL1        0.0331
      6 C         141.9698  138.0001  163.1220 C.3     1  UNL1        0.0736
      7 N         138.2926  137.6249  161.6772 N.3     1  UNL1       -0.2947
      8 H         137.7218  136.8608  162.0388 H       1  UNL1        0.1235
      9 C         137.3583  138.7602  161.3802 C.3     1  UNL1        0.0957
     10 C         137.8797  140.1655  161.3236 C.ar    1  UNL1       -0.0032
     11 C         137.5447  141.1344  162.4186 C.ar    1  UNL1        0.0004
     12 C         138.0661  142.5397  162.3621 C.ar    1  UNL1        0.0398
     13 C         138.9226  142.9761  161.2106 C.ar    1  UNL1        0.1724
     14 C         139.2577  142.0073  160.1157 C.ar    1  UNL1        0.1721
     15 C         138.7362  140.6019  160.1721 C.ar    1  UNL1        0.0371
     16 O         140.1142  142.4437  158.9642 O.3     1  UNL1       -0.4684
     17 C         140.6357  143.8490  158.9076 C.3     1  UNL1        0.2526
     18 C         140.3006  144.8179  160.0026 C.3     1  UNL1        0.2526
     19 O         139.4441  144.3815  161.1541 O.3     1  UNL1       -0.4684
     20 C         142.8120  138.3932  165.5481 C.3     1  UNL1        0.1063
     21 C         143.1886  139.7741  165.9969 C.3     1  UNL1        0.1487
     22 O         143.0396  140.1608  167.4385 O.3     1  UNL1       -0.3786
     23 H         142.6900  139.4081  167.9407 H       1  UNL1        0.2108
     24 C         140.8516  143.5151  165.1065 C.ar    1  UNL1        0.1388
     25 C         141.3771  144.5092  164.1138 C.ar    1  UNL1        0.0384
     26 C         142.6816  144.2563  163.4178 C.ar    1  UNL1        0.0222
     27 C         143.4606  143.0093  163.7146 C.ar    1  UNL1        0.0813
     28 N         144.7651  142.7565  163.0187 N.ar    1  UNL1       -0.2439
     29 C         145.5441  141.5095  163.3154 C.ar    1  UNL1        0.0986
     30 C         145.0186  140.5153  164.3082 C.ar    1  UNL1        0.0188
     31 C         143.7141  140.7682  165.0042 C.ar    1  UNL1        0.0087
     32 C         142.9351  142.0152  164.7073 C.ar    1  UNL1        0.0190
     33 C         141.6306  142.2681  165.4033 C.ar    1  UNL1        0.0382
     34 C         138.5426  144.7027  165.1965 C.3     1  UNL1        0.2525
     35 O         139.5471  143.7680  165.8025 O.3     1  UNL1       -0.4714
@<TRIPOS>BOND
     1    34    35    1
     2    35    24    1
     3    24    25   ar
     4    25    26   ar
     5    26    27   ar
     6    27    28   ar
     7    28    29   ar
     8    29    30   ar
     9    30    31   ar
    10    31    21    1
    11    21    22    1
    12    21    20    1
    13    20     1    1
    14     1     2    1
    15     2     3    1
    16     3     4    1
    17     4     7    1
    18     7     9    1
    19     9    10    1
    20    10    11   ar
    21    11    12   ar
    22    12    13   ar
    23    13    14   ar
    24    14    15   ar
    25    14    16    1
    26    16    17    1
    27    17    18    1
    28    18    19    1
    29     4     5    1
    30     5     6    1
    31    31    32   ar
    32    32    33   ar
    33    33    24   ar
    34    32    27   ar
    35     6     1    1
    36    15    10   ar
    37    19    13    1
    38    22    23    1
    39     7     8    1
@<TRIPOS>MOLECULE
*****
 35 39 0 0 0
SMALL
GASTEIGER

@<TRIPOS>ATOM
      1 N         142.3050  144.4252  161.1312 N.3     1  UNL1       -0.2703
      2 C         142.7749  143.2196  160.3724 C.3     1  UNL1        0.0736
      3 C         143.9630  142.4437  160.8583 C.3     1  UNL1        0.0331
      4 C         144.6814  142.8733  162.1030 C.3     1  UNL1        0.0570
      5 C         144.2116  144.0789  162.8619 C.3     1  UNL1        0.0331
      6 C         143.0233  144.8548  162.3759 C.3     1  UNL1        0.0736
      7 N         145.8696  142.0974  162.5889 N.3     1  UNL1       -0.2947
      8 H         146.6066  142.7762  162.7798 H       1  UNL1        0.1235
      9 C         145.7523  141.2313  163.8080 C.3     1  UNL1        0.0957
     10 C         144.4217  140.6575  164.1952 C.ar    1  UNL1       -0.0032
     11 C         143.6217  141.2930  165.2935 C.ar    1  UNL1        0.0004
     12 C         142.2910  140.7191  165.6806 C.ar    1  UNL1        0.0398
     13 C         141.7602  139.5097  164.9695 C.ar    1  UNL1        0.1724
     14 C         142.5601  138.8742  163.8712 C.ar    1  UNL1        0.1721
     15 C         143.8909  139.4481  163.4840 C.ar    1  UNL1        0.0371
     16 O         142.0294  137.6649  163.1601 O.3     1  UNL1       -0.4684
     17 C         140.6987  137.0910  163.5473 C.3     1  UNL1        0.2526
     18 C         139.8987  137.7265  164.6456 C.3     1  UNL1        0.2526
     19 O         140.4295  138.9359  165.3567 O.3     1  UNL1       -0.4684
     20 C         141.1168  145.2011  160.6453 C.3     1  UNL1        0.1063
     21 C         139.9244  145.3833  161.5369 C.3     1  UNL1        0.1487
     22 O         139.0260  146.5706  161.3545 O.3     1  UNL1       -0.3786
     23 H         139.3556  147.1161  160.6234 H       1  UNL1        0.2108
     24 C         138.3207  141.3240  160.4415 C.ar    1  UNL1        0.1388
     25 C         138.0266  140.3190  161.5154 C.ar    1  UNL1        0.0384
     26 C         138.2672  140.6670  162.9545 C.ar    1  UNL1        0.0222
     27 C         138.8017  142.0201  163.3197 C.ar    1  UNL1        0.0813
     28 N         139.0423  142.3681  164.7588 N.ar    1  UNL1       -0.2439
     29 C         139.5768  143.7212  165.1239 C.ar    1  UNL1        0.0986
     30 C         139.8709  144.7263  164.0500 C.ar    1  UNL1        0.0188
     31 C         139.6303  144.3783  162.6109 C.ar    1  UNL1        0.0087
     32 C         139.0957  143.0251  162.2457 C.ar    1  UNL1        0.0190
     33 C         138.8552  142.6771  160.8066 C.ar    1  UNL1        0.0382
     34 C         137.9840  142.0634  157.9737 C.3     1  UNL1        0.2525
     35 O         138.0801  140.9760  159.0024 O.3     1  UNL1       -0.4714
@<TRIPOS>BOND
     1    34    35    1
     2    35    24    1
     3    24    25   ar
     4    25    26   ar
     5    26    27   ar
     6    27    28   ar
     7    28    29   ar
     8    29    30   ar
     9    30    31   ar
    10    31    21    1
    11    21    22    1
    12    21    20    1
    13    20     1    1
    14     1     2    1
    15     2     3    1
    16     3     4    1
    17     4     7    1
    18     7     9    1
    19     9    10    1
    20    10    11   ar
    21    11    12   ar
    22    12    13   ar
    23    13    14   ar
    24    14    15   ar
    25    14    16    1
    26    16    17    1
    27    17    18    1
    28    18    19    1
    29     4     5    1
    30     5     6    1
    31    31    32   ar
    32    32    33   ar
    33    33    24   ar
    34    32    27   ar
    35     6     1    1
    36    15    10   ar
    37    19    13    1
    38    22    23    1
    39     7     8    1
@<TRIPOS>MOLECULE
*****
 35 39 0 0 0
SMALL
GASTEIGER

@<TRIPOS>ATOM
      1 N         138.8884  143.6316  163.3957 N.3     1  UNL1       -0.2703
      2 C         137.7653  142.7886  162.8684 C.3     1  UNL1        0.0736
      3 C         137.3913  141.5152  163.5672 C.3     1  UNL1        0.0331
      4 C         138.1404  141.0846  164.7934 C.3     1  UNL1        0.0570
      5 C         139.2635  141.9276  165.3208 C.3     1  UNL1        0.0331
      6 C         139.6375  143.2011  164.6219 C.3     1  UNL1        0.0736
      7 N         137.7664  139.8112  165.4923 N.3     1  UNL1       -0.2947
      8 H         136.8153  139.5844  165.2019 H       1  UNL1        0.1235
      9 C         138.5886  138.5736  165.2869 C.3     1  UNL1        0.0957
     10 C         139.3894  138.4052  164.0298 C.ar    1  UNL1       -0.0032
     11 C         138.6918  138.1914  162.7191 C.ar    1  UNL1        0.0004
     12 C         139.4926  138.0230  161.4620 C.ar    1  UNL1        0.0398
     13 C         140.9910  138.0684  161.5155 C.ar    1  UNL1        0.1724
     14 C         141.6885  138.2822  162.8260 C.ar    1  UNL1        0.1721
     15 C         140.8877  138.4506  164.0832 C.ar    1  UNL1        0.0371
     16 O         143.1869  138.3277  162.8795 O.3     1  UNL1       -0.4684
     17 C         143.9877  138.1593  161.6224 C.3     1  UNL1        0.2526
     18 C         143.2901  137.9455  160.3117 C.3     1  UNL1        0.2526
     19 O         141.7917  137.9000  160.2583 O.3     1  UNL1       -0.4684
     20 C         139.2624  144.9050  162.6969 C.3     1  UNL1        0.1063
     21 C         140.7075  145.2614  162.5098 C.3     1  UNL1        0.1487
     22 O         141.3935  146.1560  163.4993 O.3     1  UNL1       -0.3786
     23 H         140.7656  146.4128  164.1926 H       1  UNL1        0.2108
     24 C         144.0177  142.2791  163.1409 C.ar    1  UNL1        0.1388
     25 C         144.7766  141.7409  161.9643 C.ar    1  UNL1        0.0384
     26 C         144.4322  142.1968  160.5774 C.ar    1  UNL1        0.0222
     27 C         143.3288  143.1908  160.3670 C.ar    1  UNL1        0.0813
     28 N         142.9844  143.6467  158.9801 N.ar    1  UNL1       -0.2439
     29 C         141.8810  144.6408  158.7698 C.ar    1  UNL1        0.0986
     30 C         141.1220  145.1791  159.9463 C.ar    1  UNL1        0.0188
     31 C         141.4664  144.7232  161.3332 C.ar    1  UNL1        0.0087
     32 C         142.5699  143.7290  161.5436 C.ar    1  UNL1        0.0190
     33 C         142.9143  143.2731  162.9305 C.ar    1  UNL1        0.0382
     34 C         143.3697  141.0292  165.3244 C.3     1  UNL1        0.2525
     35 O         144.3621  141.8232  164.5278 O.3     1  UNL1       -0.4714
@<TRIPOS>BOND
     1    34    35    1
     2    35    24    1
     3    24    25   ar
     4    25    26   ar
     5    26    27   ar
     6    27    28   ar
     7    28    29   ar
     8    29    30   ar
     9    30    31   ar
    10    31    21    1
    11    21    22    1
    12    21    20    1
    13    20     1    1
    14     1     2    1
    15     2     3    1
    16     3     4    1
    17     4     7    1
    18     7     9    1
    19     9    10    1
    20    10    11   ar
    21    11    12   ar
    22    12    13   ar
    23    13    14   ar
    24    14    15   ar
    25    14    16    1
    26    16    17    1
    27    17    18    1
    28    18    19    1
    29     4     5    1
    30     5     6    1
    31    31    32   ar
    32    32    33   ar
    33    33    24   ar
    34    32    27   ar
    35     6     1    1
    36    15    10   ar
    37    19    13    1
    38    22    23    1
    39     7     8    1
