@<TRIPOS>MOLECULE
*****
 28 31 0 0 0
SMALL
GASTEIGER

@<TRIPOS>ATOM
      1 C         142.0509  144.1535  161.3664 C.ar    1  UNL1        0.0346
      2 C         143.4256  143.6031  161.6055 C.ar    1  UNL1        0.0030
      3 C         144.1558  143.9339  162.8733 C.ar    1  UNL1        0.0002
      4 C         143.5113  144.8150  163.9020 C.ar    1  UNL1        0.0031
      5 C         142.1366  145.3653  163.6629 C.ar    1  UNL1        0.0369
      6 C         141.4064  145.0346  162.3951 C.ar    1  UNL1        0.1392
      7 O         138.7028  139.7293  158.0316 O.2     1  UNL1       -0.2622
      8 C         139.4921  140.5889  158.9741 C.2     1  UNL1        0.2832
      9 N         139.9744  140.1901  160.3373 N.am    1  UNL1       -0.2425
     10 C         140.7180  141.3530  160.9244 C.2     1  UNL1        0.2583
     11 O         141.3699  141.3915  162.2748 O.2     1  UNL1       -0.2692
     12 C         140.6954  142.4705  159.9241 C.2     1  UNL1        0.0874
     13 C         141.3206  143.8228  160.0986 C.2     1  UNL1        0.0142
     14 S         139.9377  141.9983  158.7187 S.3     1  UNL1       -0.0254
     15 H         139.8284  139.3182  160.7706 H       1  UNL1        0.1587
     16 O         140.0316  145.5850  162.1560 O.3     1  UNL1       -0.4654
     17 C         138.8748  145.0957  162.9760 C.3     1  UNL1        0.2912
     18 C         138.4759  143.6508  162.9232 C.ar    1  UNL1        0.2704
     19 N         137.6394  143.0054  161.8583 N.ar    1  UNL1       -0.1075
     20 N         137.4900  141.5532  162.2029 N.ar    1  UNL1       -0.1071
     21 C         138.2341  141.3010  163.4807 C.ar    1  UNL1        0.2497
     22 O         138.8434  142.5974  163.9258 O.2     1  UNL1       -0.4158
     23 C         138.3487  139.9837  164.1890 C.ar    1  UNL1        0.0551
     24 C         138.0763  139.8977  165.6614 C.ar    1  UNL1        0.0047
     25 C         138.1909  138.5804  166.3697 C.ar    1  UNL1        0.0002
     26 C         138.5780  137.3492  165.6055 C.ar    1  UNL1        0.0000
     27 C         138.8505  137.4352  164.1330 C.ar    1  UNL1        0.0002
     28 C         138.7359  138.7524  163.4247 C.ar    1  UNL1        0.0047
@<TRIPOS>BOND
     1     7     8    2
     2     8     9   am
     3     9    10   am
     4    10    11    2
     5    10    12    1
     6    12    13    2
     7    13     1    1
     8     1     2   ar
     9     2     3   ar
    10     3     4   ar
    11     4     5   ar
    12     5     6   ar
    13     6    16    1
    14    16    17    1
    15    17    18    1
    16    18    19   ar
    17    19    20   ar
    18    20    21   ar
    19    21    23    1
    20    23    24   ar
    21    24    25   ar
    22    25    26   ar
    23    26    27   ar
    24    27    28   ar
    25    21    22   ar
    26    12    14    1
    27    14     8    1
    28     6     1   ar
    29    22    18   ar
    30    28    23   ar
    31     9    15    1
@<TRIPOS>MOLECULE
*****
 28 31 0 0 0
SMALL
GASTEIGER

@<TRIPOS>ATOM
      1 C         139.8834  138.0342  161.9706 C.ar    1  UNL1        0.0346
      2 C         138.9604  138.5024  160.8850 C.ar    1  UNL1        0.0030
      3 C         139.5167  139.1805  159.6682 C.ar    1  UNL1        0.0002
      4 C         140.9962  139.3904  159.5370 C.ar    1  UNL1        0.0031
      5 C         141.9193  138.9221  160.6226 C.ar    1  UNL1        0.0369
      6 C         141.3629  138.2440  161.8394 C.ar    1  UNL1        0.1392
      7 O         137.6161  138.7088  167.9962 O.2     1  UNL1       -0.2622
      8 C         138.1685  138.7884  166.6038 C.2     1  UNL1        0.2832
      9 N         138.5960  140.0393  165.8951 N.am    1  UNL1       -0.2425
     10 C         139.0821  139.6550  164.5290 C.2     1  UNL1        0.2583
     11 O         139.6037  140.5943  163.4823 O.2     1  UNL1       -0.2692
     12 C         138.9550  138.1666  164.3935 C.2     1  UNL1        0.0874
     13 C         139.3271  137.3560  163.1875 C.2     1  UNL1        0.0142
     14 S         138.3903  137.6310  165.6758 S.3     1  UNL1       -0.0254
     15 H         138.5634  140.9523  166.2620 H       1  UNL1        0.1587
     16 O         142.2860  137.7757  162.9251 O.3     1  UNL1       -0.4654
     17 C         143.1577  138.7614  163.6453 C.3     1  UNL1        0.2912
     18 C         142.9610  139.0051  165.1122 C.ar    1  UNL1        0.2704
     19 N         143.6909  138.3151  166.2262 N.ar    1  UNL1       -0.1075
     20 N         143.1807  138.8651  167.5252 N.ar    1  UNL1       -0.1071
     21 C         142.1355  139.8950  167.2139 C.ar    1  UNL1        0.2497
     22 O         141.9997  139.9815  165.7226 O.2     1  UNL1       -0.4158
     23 C         141.3620  140.6975  168.2177 C.ar    1  UNL1        0.0551
     24 C         141.4028  142.1962  168.1717 C.ar    1  UNL1        0.0047
     25 C         140.6292  142.9987  169.1755 C.ar    1  UNL1        0.0002
     26 C         139.8149  142.3025  170.2253 C.ar    1  UNL1        0.0000
     27 C         139.7740  140.8038  170.2713 C.ar    1  UNL1        0.0002
     28 C         140.5476  140.0013  169.2675 C.ar    1  UNL1        0.0047
@<TRIPOS>BOND
     1     7     8    2
     2     8     9   am
     3     9    10   am
     4    10    11    2
     5    10    12    1
     6    12    13    2
     7    13     1    1
     8     1     2   ar
     9     2     3   ar
    10     3     4   ar
    11     4     5   ar
    12     5     6   ar
    13     6    16    1
    14    16    17    1
    15    17    18    1
    16    18    19   ar
    17    19    20   ar
    18    20    21   ar
    19    21    23    1
    20    23    24   ar
    21    24    25   ar
    22    25    26   ar
    23    26    27   ar
    24    27    28   ar
    25    21    22   ar
    26    12    14    1
    27    14     8    1
    28     6     1   ar
    29    22    18   ar
    30    28    23   ar
    31     9    15    1
@<TRIPOS>MOLECULE
*****
 28 31 0 0 0
SMALL
GASTEIGER

@<TRIPOS>ATOM
      1 C         143.7325  142.0293  162.2011 C.ar    1  UNL1        0.0346
      2 C         144.9621  142.5580  162.8781 C.ar    1  UNL1        0.0030
      3 C         145.7187  141.6924  163.8416 C.ar    1  UNL1        0.0002
      4 C         145.2455  140.2981  164.1281 C.ar    1  UNL1        0.0031
      5 C         144.0159  139.7694  163.4510 C.ar    1  UNL1        0.0369
      6 C         143.2594  140.6350  162.4876 C.ar    1  UNL1        0.1392
      7 O         139.2733  146.6553  161.4143 O.2     1  UNL1       -0.2622
      8 C         140.2621  145.6062  161.8288 C.2     1  UNL1        0.2832
      9 N         140.5515  145.1741  163.2358 N.am    1  UNL1       -0.2425
     10 C         141.6033  144.1059  163.1855 C.2     1  UNL1        0.2583
     11 O         142.1912  143.3913  164.3660 O.2     1  UNL1       -0.2692
     12 C         141.9640  143.8777  161.7475 C.2     1  UNL1        0.0874
     13 C         142.9759  142.8949  161.2375 C.2     1  UNL1        0.0142
     14 S         141.1350  144.8050  160.9090 S.3     1  UNL1       -0.0254
     15 H         140.1258  145.5293  164.0493 H       1  UNL1        0.1587
     16 O         142.0296  140.1063  161.8105 O.3     1  UNL1       -0.4654
     17 C         140.8919  139.5744  162.6306 C.3     1  UNL1        0.2912
     18 C         140.3424  140.3858  163.7663 C.ar    1  UNL1        0.2704
     19 N         139.2852  141.4447  163.6627 N.ar    1  UNL1       -0.1075
     20 N         139.0431  141.9941  165.0372 N.ar    1  UNL1       -0.1071
     21 C         139.9508  141.2747  165.9905 C.ar    1  UNL1        0.2497
     22 O         140.7538  140.2807  165.2050 O.2     1  UNL1       -0.4158
     23 C         140.0398  141.5083  167.4695 C.ar    1  UNL1        0.0551
     24 C         139.6179  140.4322  168.4255 C.ar    1  UNL1        0.0047
     25 C         139.7069  140.6658  169.9045 C.ar    1  UNL1        0.0002
     26 C         140.2177  141.9755  170.4275 C.ar    1  UNL1        0.0000
     27 C         140.6396  143.0517  169.4716 C.ar    1  UNL1        0.0002
     28 C         140.5506  142.8181  167.9926 C.ar    1  UNL1        0.0047
@<TRIPOS>BOND
     1     7     8    2
     2     8     9   am
     3     9    10   am
     4    10    11    2
     5    10    12    1
     6    12    13    2
     7    13     1    1
     8     1     2   ar
     9     2     3   ar
    10     3     4   ar
    11     4     5   ar
    12     5     6   ar
    13     6    16    1
    14    16    17    1
    15    17    18    1
    16    18    19   ar
    17    19    20   ar
    18    20    21   ar
    19    21    23    1
    20    23    24   ar
    21    24    25   ar
    22    25    26   ar
    23    26    27   ar
    24    27    28   ar
    25    21    22   ar
    26    12    14    1
    27    14     8    1
    28     6     1   ar
    29    22    18   ar
    30    28    23   ar
    31     9    15    1
@<TRIPOS>MOLECULE
*****
 28 31 0 0 0
SMALL
GASTEIGER

@<TRIPOS>ATOM
      1 C         138.7592  138.4888  161.9619 C.ar    1  UNL1        0.0346
      2 C         137.6901  139.3088  161.3026 C.ar    1  UNL1        0.0030
      3 C         137.9099  139.8592  159.9247 C.ar    1  UNL1        0.0002
      4 C         139.1986  139.5897  159.2061 C.ar    1  UNL1        0.0031
      5 C         140.2677  138.7698  159.8654 C.ar    1  UNL1        0.0369
      6 C         140.0480  138.2193  161.2433 C.ar    1  UNL1        0.1392
      7 O         138.9873  139.5796  168.3385 O.2     1  UNL1       -0.2622
      8 C         139.0115  139.5504  166.8390 C.2     1  UNL1        0.2832
      9 N         139.4188  140.6812  165.9416 N.am    1  UNL1       -0.2425
     10 C         139.2915  140.2149  164.5216 C.2     1  UNL1        0.2583
     11 O         139.5967  141.0254  163.2968 O.2     1  UNL1       -0.2692
     12 C         138.8056  138.7960  164.5413 C.2     1  UNL1        0.0874
     13 C         138.5395  137.9383  163.3399 C.2     1  UNL1        0.0142
     14 S         138.6325  138.3853  165.9736 S.3     1  UNL1       -0.0254
     15 H         139.7172  141.5729  166.2333 H       1  UNL1        0.1587
     16 O         141.1171  137.3993  161.9026 O.3     1  UNL1       -0.4654
     17 C         142.5350  137.8883  161.9179 C.3     1  UNL1        0.2912
     18 C         143.0114  138.7726  163.0319 C.ar    1  UNL1        0.2704
     19 N         144.1887  139.7006  162.9789 N.ar    1  UNL1       -0.1075
     20 N         144.2991  140.3857  164.3087 N.ar    1  UNL1       -0.1071
     21 C         143.1900  139.8812  165.1836 C.ar    1  UNL1        0.2497
     22 O         142.3942  138.8843  164.3944 O.2     1  UNL1       -0.4158
     23 C         142.9235  140.3001  166.5990 C.ar    1  UNL1        0.0551
     24 C         142.7270  139.2623  167.6640 C.ar    1  UNL1        0.0047
     25 C         142.4605  139.6812  169.0794 C.ar    1  UNL1        0.0002
     26 C         142.3906  141.1379  169.4299 C.ar    1  UNL1        0.0000
     27 C         142.5871  142.1758  168.3650 C.ar    1  UNL1        0.0002
     28 C         142.8536  141.7569  166.9495 C.ar    1  UNL1        0.0047
@<TRIPOS>BOND
     1     7     8    2
     2     8     9   am
     3     9    10   am
     4    10    11    2
     5    10    12    1
     6    12    13    2
     7    13     1    1
     8     1     2   ar
     9     2     3   ar
    10     3     4   ar
    11     4     5   ar
    12     5     6   ar
    13     6    16    1
    14    16    17    1
    15    17    18    1
    16    18    19   ar
    17    19    20   ar
    18    20    21   ar
    19    21    23    1
    20    23    24   ar
    21    24    25   ar
    22    25    26   ar
    23    26    27   ar
    24    27    28   ar
    25    21    22   ar
    26    12    14    1
    27    14     8    1
    28     6     1   ar
    29    22    18   ar
    30    28    23   ar
    31     9    15    1
@<TRIPOS>MOLECULE
*****
 28 31 0 0 0
SMALL
GASTEIGER

@<TRIPOS>ATOM
      1 C         140.3656  139.3073  160.8341 C.ar    1  UNL1        0.0346
      2 C         139.5839  140.3489  160.0900 C.ar    1  UNL1        0.0030
      3 C         138.0876  140.3783  160.1912 C.ar    1  UNL1        0.0002
      4 C         137.3731  139.3660  161.0366 C.ar    1  UNL1        0.0031
      5 C         138.1548  138.3243  161.7807 C.ar    1  UNL1        0.0369
      6 C         139.6511  138.2950  161.6795 C.ar    1  UNL1        0.1392
      7 O         145.9982  141.5968  163.0556 O.2     1  UNL1       -0.2622
      8 C         144.5930  141.2100  162.7013 C.2     1  UNL1        0.2832
      9 N         143.3442  141.7440  163.3381 N.am    1  UNL1       -0.2425
     10 C         142.1692  141.0852  162.6783 C.2     1  UNL1        0.2583
     11 O         140.7252  141.3254  163.0056 O.2     1  UNL1       -0.2692
     12 C         142.6917  140.1441  161.6336 C.2     1  UNL1        0.0874
     13 C         141.8620  139.2779  160.7329 C.2     1  UNL1        0.0142
     14 S         144.1897  140.2212  161.6479 S.3     1  UNL1       -0.0254
     15 H         143.3031  142.4099  164.0621 H       1  UNL1        0.1587
     16 O         140.4329  137.2533  162.4237 O.3     1  UNL1       -0.4654
     17 C         141.1410  137.6137  163.6960 C.3     1  UNL1        0.2912
     18 C         140.3810  138.2460  164.8240 C.ar    1  UNL1        0.2704
     19 N         138.9806  137.9084  165.2422 N.ar    1  UNL1       -0.1075
     20 N         138.6221  138.7808  166.4086 N.ar    1  UNL1       -0.1071
     21 C         139.8010  139.6576  166.7113 C.ar    1  UNL1        0.2497
     22 O         140.8880  139.3271  165.7320 O.2     1  UNL1       -0.4158
     23 C         139.8790  140.6846  167.8018 C.ar    1  UNL1        0.0551
     24 C         139.3815  140.3563  169.1782 C.ar    1  UNL1        0.0047
     25 C         139.4596  141.3832  170.2687 C.ar    1  UNL1        0.0002
     26 C         140.0351  142.7385  169.9828 C.ar    1  UNL1        0.0000
     27 C         140.5327  143.0669  168.6064 C.ar    1  UNL1        0.0002
     28 C         140.4546  142.0399  167.5159 C.ar    1  UNL1        0.0047
@<TRIPOS>BOND
     1     7     8    2
     2     8     9   am
     3     9    10   am
     4    10    11    2
     5    10    12    1
     6    12    13    2
     7    13     1    1
     8     1     2   ar
     9     2     3   ar
    10     3     4   ar
    11     4     5   ar
    12     5     6   ar
    13     6    16    1
    14    16    17    1
    15    17    18    1
    16    18    19   ar
    17    19    20   ar
    18    20    21   ar
    19    21    23    1
    20    23    24   ar
    21    24    25   ar
    22    25    26   ar
    23    26    27   ar
    24    27    28   ar
    25    21    22   ar
    26    12    14    1
    27    14     8    1
    28     6     1   ar
    29    22    18   ar
    30    28    23   ar
    31     9    15    1
@<TRIPOS>MOLECULE
*****
 28 31 0 0 0
SMALL
GASTEIGER

@<TRIPOS>ATOM
      1 C         139.5498  142.2332  162.6487 C.ar    1  UNL1        0.0346
      2 C         140.1566  143.6006  162.7584 C.ar    1  UNL1        0.0030
      3 C         139.6173  144.5826  163.7558 C.ar    1  UNL1        0.0002
      4 C         138.4712  144.1972  164.6434 C.ar    1  UNL1        0.0031
      5 C         137.8644  142.8299  164.5337 C.ar    1  UNL1        0.0369
      6 C         138.4037  141.8479  163.5363 C.ar    1  UNL1        0.1392
      7 O         143.9989  137.7156  161.3451 O.2     1  UNL1       -0.2622
      8 C         143.0747  138.7796  161.8586 C.2     1  UNL1        0.2832
      9 N         143.1382  139.4250  163.2112 N.am    1  UNL1       -0.2425
     10 C         142.0275  140.4293  163.2981 C.2     1  UNL1        0.2583
     11 O         141.7206  141.3046  164.4770 O.2     1  UNL1       -0.2692
     12 C         141.2776  140.4048  161.9993 C.2     1  UNL1        0.0874
     13 C         140.0891  141.2512  161.6512 C.2     1  UNL1        0.0142
     14 S         141.9248  139.3852  161.1096 S.3     1  UNL1       -0.0254
     15 H         143.7938  139.2245  163.9178 H       1  UNL1        0.1587
     16 O         137.7969  140.4805  163.4266 O.3     1  UNL1       -0.4654
     17 C         138.4133  139.3254  164.1587 C.3     1  UNL1        0.2912
     18 C         138.5355  139.3640  165.6532 C.ar    1  UNL1        0.2704
     19 N         137.6188  138.6897  166.6304 N.ar    1  UNL1       -0.1075
     20 N         138.1126  138.9925  168.0141 N.ar    1  UNL1       -0.1071
     21 C         139.3346  139.8539  167.8920 C.ar    1  UNL1        0.2497
     22 O         139.5959  140.0835  166.4329 O.2     1  UNL1       -0.4158
     23 C         140.1516  140.3914  169.0293 C.ar    1  UNL1        0.0551
     24 C         139.6701  141.5842  169.8007 C.ar    1  UNL1        0.0047
     25 C         140.4872  142.1217  170.9380 C.ar    1  UNL1        0.0002
     26 C         141.7858  141.4663  171.3039 C.ar    1  UNL1        0.0000
     27 C         142.2674  140.2734  170.5325 C.ar    1  UNL1        0.0002
     28 C         141.4503  139.7360  169.3952 C.ar    1  UNL1        0.0047
@<TRIPOS>BOND
     1     7     8    2
     2     8     9   am
     3     9    10   am
     4    10    11    2
     5    10    12    1
     6    12    13    2
     7    13     1    1
     8     1     2   ar
     9     2     3   ar
    10     3     4   ar
    11     4     5   ar
    12     5     6   ar
    13     6    16    1
    14    16    17    1
    15    17    18    1
    16    18    19   ar
    17    19    20   ar
    18    20    21   ar
    19    21    23    1
    20    23    24   ar
    21    24    25   ar
    22    25    26   ar
    23    26    27   ar
    24    27    28   ar
    25    21    22   ar
    26    12    14    1
    27    14     8    1
    28     6     1   ar
    29    22    18   ar
    30    28    23   ar
    31     9    15    1
@<TRIPOS>MOLECULE
*****
 28 31 0 0 0
SMALL
GASTEIGER

@<TRIPOS>ATOM
      1 C         140.2517  140.0279  165.7734 C.ar    1  UNL1        0.0346
      2 C         140.8346  138.6526  165.6370 C.ar    1  UNL1        0.0030
      3 C         140.2240  137.6706  164.6816 C.ar    1  UNL1        0.0002
      4 C         139.0306  138.0640  163.8624 C.ar    1  UNL1        0.0031
      5 C         138.4477  139.4394  163.9988 C.ar    1  UNL1        0.0369
      6 C         139.0583  140.4213  164.9542 C.ar    1  UNL1        0.1392
      7 O         140.3427  142.3950  171.7976 O.2     1  UNL1       -0.2622
      8 C         140.1504  141.7023  170.4811 C.2     1  UNL1        0.2832
      9 N         139.1724  140.6005  170.1990 N.am    1  UNL1       -0.2425
     10 C         139.3200  140.2071  168.7591 C.2     1  UNL1        0.2583
     11 O         138.5360  139.1421  168.0513 O.2     1  UNL1       -0.2692
     12 C         140.3893  141.0657  168.1512 C.2     1  UNL1        0.0874
     13 C         140.8623  141.0099  166.7288 C.2     1  UNL1        0.0142
     14 S         140.9025  141.9897  169.2155 S.3     1  UNL1       -0.0254
     15 H         138.5439  140.2051  170.8455 H       1  UNL1        0.1587
     16 O         138.4754  141.7967  165.0906 O.3     1  UNL1       -0.4654
     17 C         137.6640  142.3816  163.9728 C.3     1  UNL1        0.2912
     18 C         138.3118  143.2934  162.9732 C.ar    1  UNL1        0.2704
     19 N         138.0623  144.7657  162.8315 N.ar    1  UNL1       -0.1075
     20 N         138.9190  145.2752  161.7106 N.ar    1  UNL1       -0.1071
     21 C         139.6980  144.1177  161.1596 C.ar    1  UNL1        0.2497
     22 O         139.3227  142.8929  161.9399 O.2     1  UNL1       -0.4158
     23 C         140.6799  144.1751  160.0271 C.ar    1  UNL1        0.0551
     24 C         141.5771  143.0049  159.7524 C.ar    1  UNL1        0.0047
     25 C         142.5590  143.0622  158.6198 C.ar    1  UNL1        0.0002
     26 C         142.6436  144.2897  157.7620 C.ar    1  UNL1        0.0000
     27 C         141.7464  145.4600  158.0367 C.ar    1  UNL1        0.0002
     28 C         140.7645  145.4027  159.1692 C.ar    1  UNL1        0.0047
@<TRIPOS>BOND
     1     7     8    2
     2     8     9   am
     3     9    10   am
     4    10    11    2
     5    10    12    1
     6    12    13    2
     7    13     1    1
     8     1     2   ar
     9     2     3   ar
    10     3     4   ar
    11     4     5   ar
    12     5     6   ar
    13     6    16    1
    14    16    17    1
    15    17    18    1
    16    18    19   ar
    17    19    20   ar
    18    20    21   ar
    19    21    23    1
    20    23    24   ar
    21    24    25   ar
    22    25    26   ar
    23    26    27   ar
    24    27    28   ar
    25    21    22   ar
    26    12    14    1
    27    14     8    1
    28     6     1   ar
    29    22    18   ar
    30    28    23   ar
    31     9    15    1
@<TRIPOS>MOLECULE
*****
 28 31 0 0 0
SMALL
GASTEIGER

@<TRIPOS>ATOM
      1 C         139.6195  138.6412  161.3219 C.ar    1  UNL1        0.0346
      2 C         140.3254  138.5582  160.0010 C.ar    1  UNL1        0.0030
      3 C         139.8459  139.3800  158.8415 C.ar    1  UNL1        0.0002
      4 C         138.6605  140.2849  159.0028 C.ar    1  UNL1        0.0031
      5 C         137.9546  140.3680  160.3237 C.ar    1  UNL1        0.0369
      6 C         138.4341  139.5461  161.4832 C.ar    1  UNL1        0.1392
      7 O         143.3552  138.3706  166.6016 O.2     1  UNL1       -0.2622
      8 C         142.5715  138.6550  165.3546 C.2     1  UNL1        0.2832
      9 N         142.5811  139.9401  164.5810 N.am    1  UNL1       -0.2425
     10 C         141.6561  139.7834  163.4106 C.2     1  UNL1        0.2583
     11 O         141.3638  140.8257  162.3722 O.2     1  UNL1       -0.2692
     12 C         141.0748  138.4016  163.4608 C.2     1  UNL1        0.0874
     13 C         140.0990  137.8194  162.4816 C.2     1  UNL1        0.0142
     14 S         141.6405  137.7042  164.6623 S.3     1  UNL1       -0.0254
     15 H         143.1030  140.7450  164.8025 H       1  UNL1        0.1587
     16 O         137.7283  139.6292  162.8042 O.3     1  UNL1       -0.4654
     17 C         137.9530  140.8099  163.7017 C.3     1  UNL1        0.2912
     18 C         138.6108  140.6227  165.0367 C.ar    1  UNL1        0.2704
     19 N         138.4916  139.4137  165.9166 N.ar    1  UNL1       -0.1075
     20 N         139.3104  139.6555  167.1499 N.ar    1  UNL1       -0.1071
     21 C         139.9357  141.0139  167.0323 C.ar    1  UNL1        0.2497
     22 O         139.5033  141.6116  165.7263 O.2     1  UNL1       -0.4158
     23 C         140.8354  141.6609  168.0432 C.ar    1  UNL1        0.0551
     24 C         142.2336  141.1534  168.2365 C.ar    1  UNL1        0.0047
     25 C         143.1332  141.8004  169.2474 C.ar    1  UNL1        0.0002
     26 C         142.6347  142.9548  170.0651 C.ar    1  UNL1        0.0000
     27 C         141.2365  143.4623  169.8719 C.ar    1  UNL1        0.0002
     28 C         140.3368  142.8153  168.8610 C.ar    1  UNL1        0.0047
@<TRIPOS>BOND
     1     7     8    2
     2     8     9   am
     3     9    10   am
     4    10    11    2
     5    10    12    1
     6    12    13    2
     7    13     1    1
     8     1     2   ar
     9     2     3   ar
    10     3     4   ar
    11     4     5   ar
    12     5     6   ar
    13     6    16    1
    14    16    17    1
    15    17    18    1
    16    18    19   ar
    17    19    20   ar
    18    20    21   ar
    19    21    23    1
    20    23    24   ar
    21    24    25   ar
    22    25    26   ar
    23    26    27   ar
    24    27    28   ar
    25    21    22   ar
    26    12    14    1
    27    14     8    1
    28     6     1   ar
    29    22    18   ar
    30    28    23   ar
    31     9    15    1
@<TRIPOS>MOLECULE
*****
 28 31 0 0 0
SMALL
GASTEIGER

@<TRIPOS>ATOM
      1 C         141.6852  140.4727  166.2447 C.ar    1  UNL1        0.0346
      2 C         143.0716  140.7908  165.7687 C.ar    1  UNL1        0.0030
      3 C         143.7862  139.8419  164.8528 C.ar    1  UNL1        0.0002
      4 C         143.1144  138.5750  164.4129 C.ar    1  UNL1        0.0031
      5 C         141.7280  138.2569  164.8889 C.ar    1  UNL1        0.0369
      6 C         141.0134  139.2058  165.8048 C.ar    1  UNL1        0.1392
      7 O         140.4187  142.1956  172.3546 O.2     1  UNL1       -0.2622
      8 C         140.8441  141.6237  171.0348 C.2     1  UNL1        0.2832
      9 N         141.7427  140.4393  170.8355 N.am    1  UNL1       -0.2425
     10 C         141.8995  140.2195  169.3600 C.2     1  UNL1        0.2583
     11 O         142.7148  139.1406  168.7110 O.2     1  UNL1       -0.2692
     12 C         141.0977  141.2680  168.6473 C.2     1  UNL1        0.0874
     13 C         140.9705  141.4216  167.1606 C.2     1  UNL1        0.0142
     14 S         140.4454  142.1358  169.6824 S.3     1  UNL1       -0.0254
     15 H         142.1570  139.9008  171.5480 H       1  UNL1        0.1587
     16 O         139.6269  138.8877  166.2809 O.3     1  UNL1       -0.4654
     17 C         138.4743  138.9408  165.3225 C.3     1  UNL1        0.2912
     18 C         138.5616  139.7925  164.0908 C.ar    1  UNL1        0.2704
     19 N         138.1885  139.3722  162.7001 N.ar    1  UNL1       -0.1075
     20 N         138.4336  140.5339  161.7833 N.ar    1  UNL1       -0.1071
     21 C         138.9583  141.6721  162.6075 C.ar    1  UNL1        0.2497
     22 O         139.0374  141.2139  164.0336 O.2     1  UNL1       -0.4158
     23 C         139.3374  143.0301  162.0955 C.ar    1  UNL1        0.0551
     24 C         139.0386  144.2507  162.9145 C.ar    1  UNL1        0.0047
     25 C         139.4177  145.6087  162.4025 C.ar    1  UNL1        0.0002
     26 C         140.0955  145.7461  161.0715 C.ar    1  UNL1        0.0000
     27 C         140.3943  144.5255  160.2525 C.ar    1  UNL1        0.0002
     28 C         140.0152  143.1675  160.7645 C.ar    1  UNL1        0.0047
@<TRIPOS>BOND
     1     7     8    2
     2     8     9   am
     3     9    10   am
     4    10    11    2
     5    10    12    1
     6    12    13    2
     7    13     1    1
     8     1     2   ar
     9     2     3   ar
    10     3     4   ar
    11     4     5   ar
    12     5     6   ar
    13     6    16    1
    14    16    17    1
    15    17    18    1
    16    18    19   ar
    17    19    20   ar
    18    20    21   ar
    19    21    23    1
    20    23    24   ar
    21    24    25   ar
    22    25    26   ar
    23    26    27   ar
    24    27    28   ar
    25    21    22   ar
    26    12    14    1
    27    14     8    1
    28     6     1   ar
    29    22    18   ar
    30    28    23   ar
    31     9    15    1
