@<TRIPOS>MOLECULE
*****
 31 35 0 0 0
SMALL
GASTEIGER

@<TRIPOS>ATOM
      1 N         138.5827  141.3196  164.0419 N.3     1  UNL1       -0.2703
      2 C         139.1180  141.0898  162.6597 C.3     1  UNL1        0.0727
      3 C         139.5052  142.2576  161.8017 C.3     1  UNL1        0.0260
      4 C         139.3573  143.6552  162.3260 C.3     1  UNL1        0.0737
      5 C         138.8220  143.8850  163.7082 C.3     1  UNL1        0.0260
      6 C         138.4347  142.7172  164.5662 C.3     1  UNL1        0.0727
      7 C         139.2658  145.1018  162.7122 C.3     1  UNL1        0.0306
      8 C         139.7560  145.9222  161.5560 C.3     1  UNL1        0.1002
      9 N         140.1505  144.9825  160.4552 N.am    1  UNL1       -0.2421
     10 C         139.9041  143.5816  160.9311 C.2     1  UNL1        0.2296
     11 O         140.1596  142.3271  160.1494 O.2     1  UNL1       -0.2745
     12 C         140.6957  145.3750  159.1141 C.ar    1  UNL1        0.1667
     13 C         139.9129  145.9807  157.9870 C.ar    1  UNL1        0.1441
     14 N         140.8528  146.2108  156.8409 N.ar    1  UNL1       -0.1871
     15 S         142.2166  145.7474  157.2596 S.2     1  UNL1        0.1178
     16 N         142.1194  145.2308  158.6646 N.ar    1  UNL1       -0.1746
     17 C         138.1954  140.1517  164.9000 C.3     1  UNL1        0.1063
     18 C         139.2223  139.4838  165.7656 C.3     1  UNL1        0.1483
     19 O         139.8490  138.1938  165.3261 O.3     1  UNL1       -0.3786
     20 H         140.4865  137.8995  165.9955 H       1  UNL1        0.2108
     21 C         141.6331  141.2640  165.9020 C.3     1  UNL1        0.0306
     22 C         140.8279  140.9959  167.1388 C.ar    1  UNL1       -0.0238
     23 C         139.6225  140.1058  167.0706 C.ar    1  UNL1        0.0015
     24 C         138.8172  139.8377  168.3074 C.ar    1  UNL1       -0.0020
     25 C         139.2173  140.4596  169.6123 C.ar    1  UNL1        0.0060
     26 C         140.4227  141.3497  169.6805 C.ar    1  UNL1        0.0748
     27 C         141.2280  141.6178  168.4437 C.ar    1  UNL1        0.0233
     28 C         142.3585  142.5310  168.8156 C.3     1  UNL1        0.2352
     29 O         142.2519  142.8272  170.2822 O.3     1  UNL1       -0.4404
     30 C         141.0555  142.0971  170.8167 C.2     1  UNL1        0.3413
     31 O         140.5761  142.1119  172.2380 O.2     1  UNL1       -0.2449
@<TRIPOS>BOND
     1    21    22    1
     2    22    23   ar
     3    23    18    1
     4    18    19    1
     5    18    17    1
     6    17     1    1
     7     1     2    1
     8     2     3    1
     9     3     4    1
    10     4     5    1
    11     5     6    1
    12     4     7    1
    13     7     8    1
    14     8     9    1
    15     9    12    1
    16    12    13   ar
    17    13    14   ar
    18    14    15   ar
    19    15    16   ar
    20     9    10   am
    21    10    11    2
    22    23    24   ar
    23    24    25   ar
    24    25    26   ar
    25    26    27   ar
    26    27    28    1
    27    28    29    1
    28    29    30    1
    29    30    31    2
    30    27    22   ar
    31     6     1    1
    32    16    12   ar
    33    30    26    1
    34    10     4    1
    35    19    20    1
@<TRIPOS>MOLECULE
*****
 31 35 0 0 0
SMALL
GASTEIGER

@<TRIPOS>ATOM
      1 N         139.8891  137.8047  164.1508 N.3     1  UNL1       -0.2703
      2 C         139.4600  137.8844  162.7158 C.3     1  UNL1        0.0727
      3 C         140.4818  138.0947  161.6380 C.3     1  UNL1        0.0260
      4 C         141.9327  138.2253  161.9953 C.3     1  UNL1        0.0737
      5 C         142.3619  138.1456  163.4303 C.3     1  UNL1        0.0260
      6 C         141.3401  137.9353  164.5081 C.3     1  UNL1        0.0727
      7 C         143.4115  138.3727  162.1990 C.3     1  UNL1        0.0306
      8 C         144.0480  138.5636  160.8541 C.3     1  UNL1        0.1002
      9 N         142.9624  138.5342  159.8192 N.am    1  UNL1       -0.2421
     10 C         141.6552  138.3251  160.5245 C.2     1  UNL1        0.2296
     11 O         140.3071  138.2322  159.8734 O.2     1  UNL1       -0.2745
     12 C         143.1510  138.6871  158.3391 C.ar    1  UNL1        0.1667
     13 C         142.6421  137.7502  157.2840 C.ar    1  UNL1        0.1441
     14 N         143.0582  138.2877  155.9469 N.ar    1  UNL1       -0.1871
     15 S         143.8244  139.5569  156.1755 S.2     1  UNL1        0.1178
     16 N         143.8817  139.8036  157.6540 N.ar    1  UNL1       -0.1746
     17 C         138.8673  137.5944  165.2287 C.3     1  UNL1        0.1063
     18 C         138.1583  138.7715  165.8300 C.3     1  UNL1        0.1483
     19 O         137.3115  138.5915  167.0549 O.3     1  UNL1       -0.3786
     20 H         136.9279  139.4448  167.3111 H       1  UNL1        0.2108
     21 C         140.0811  140.7644  166.9839 C.3     1  UNL1        0.0306
     22 C         139.2575  141.1252  165.7833 C.ar    1  UNL1       -0.0238
     23 C         138.2961  140.1288  165.2063 C.ar    1  UNL1        0.0015
     24 C         137.4724  140.4896  164.0057 C.ar    1  UNL1       -0.0020
     25 C         137.6102  141.8468  163.3821 C.ar    1  UNL1        0.0060
     26 C         138.5716  142.8432  163.9590 C.ar    1  UNL1        0.0748
     27 C         139.3952  142.4824  165.1596 C.ar    1  UNL1        0.0233
     28 C         140.2533  143.6633  165.5050 C.3     1  UNL1        0.2352
     29 O         139.9600  144.7539  164.5179 O.3     1  UNL1       -0.4404
     30 C         138.9206  144.2471  163.5624 C.2     1  UNL1        0.3413
     31 O         138.3334  145.0101  162.4122 O.2     1  UNL1       -0.2449
@<TRIPOS>BOND
     1    21    22    1
     2    22    23   ar
     3    23    18    1
     4    18    19    1
     5    18    17    1
     6    17     1    1
     7     1     2    1
     8     2     3    1
     9     3     4    1
    10     4     5    1
    11     5     6    1
    12     4     7    1
    13     7     8    1
    14     8     9    1
    15     9    12    1
    16    12    13   ar
    17    13    14   ar
    18    14    15   ar
    19    15    16   ar
    20     9    10   am
    21    10    11    2
    22    23    24   ar
    23    24    25   ar
    24    25    26   ar
    25    26    27   ar
    26    27    28    1
    27    28    29    1
    28    29    30    1
    29    30    31    2
    30    27    22   ar
    31     6     1    1
    32    16    12   ar
    33    30    26    1
    34    10     4    1
    35    19    20    1
@<TRIPOS>MOLECULE
*****
 31 35 0 0 0
SMALL
GASTEIGER

@<TRIPOS>ATOM
      1 N         138.5848  139.3084  165.1508 N.3     1  UNL1       -0.2703
      2 C         138.0239  140.4899  164.4163 C.3     1  UNL1        0.0727
      3 C         138.0308  140.5129  162.9166 C.3     1  UNL1        0.0260
      4 C         138.5985  139.3544  162.1513 C.3     1  UNL1        0.0737
      5 C         139.1593  138.1729  162.8857 C.3     1  UNL1        0.0260
      6 C         139.1525  138.1499  164.3855 C.3     1  UNL1        0.0727
      7 C         139.1296  138.2749  161.2553 C.3     1  UNL1        0.0306
      8 C         138.9347  138.7143  159.8343 C.3     1  UNL1        0.1002
      9 N         138.2832  140.0654  159.8521 N.am    1  UNL1       -0.2421
     10 C         138.0753  140.4609  161.2840 C.2     1  UNL1        0.2296
     11 O         137.4536  141.7386  161.7644 O.2     1  UNL1       -0.2745
     12 C         137.9057  140.8780  158.6493 C.ar    1  UNL1        0.1667
     13 C         138.3101  142.2975  158.3820 C.ar    1  UNL1        0.1441
     14 N         137.7119  142.7108  157.0700 N.ar    1  UNL1       -0.1871
     15 S         136.9378  141.5467  156.5263 S.2     1  UNL1        0.1178
     16 N         137.0576  140.4140  157.5024 N.ar    1  UNL1       -0.1746
     17 C         138.5780  139.2853  166.6507 C.3     1  UNL1        0.1063
     18 C         139.7770  139.7652  167.4136 C.3     1  UNL1        0.1483
     19 O         139.7367  139.8285  168.9117 O.3     1  UNL1       -0.3786
     20 H         140.5863  140.1577  169.2444 H       1  UNL1        0.2108
     21 C         140.1308  142.6220  166.5688 C.3     1  UNL1        0.0306
     22 C         141.1932  141.6104  166.2560 C.ar    1  UNL1       -0.0238
     23 C         141.0163  140.1820  166.6784 C.ar    1  UNL1        0.0015
     24 C         142.0787  139.1703  166.3656 C.ar    1  UNL1       -0.0020
     25 C         143.3180  139.5870  165.6304 C.ar    1  UNL1        0.0060
     26 C         143.4948  141.0153  165.2080 C.ar    1  UNL1        0.0748
     27 C         142.4325  142.0270  165.5208 C.ar    1  UNL1        0.0233
     28 C         142.8818  143.3528  164.9819 C.3     1  UNL1        0.2352
     29 O         144.2219  143.1605  164.3360 O.3     1  UNL1       -0.4404
     30 C         144.6008  141.7159  164.4757 C.2     1  UNL1        0.3413
     31 O         145.8638  141.0829  163.9717 O.2     1  UNL1       -0.2449
@<TRIPOS>BOND
     1    21    22    1
     2    22    23   ar
     3    23    18    1
     4    18    19    1
     5    18    17    1
     6    17     1    1
     7     1     2    1
     8     2     3    1
     9     3     4    1
    10     4     5    1
    11     5     6    1
    12     4     7    1
    13     7     8    1
    14     8     9    1
    15     9    12    1
    16    12    13   ar
    17    13    14   ar
    18    14    15   ar
    19    15    16   ar
    20     9    10   am
    21    10    11    2
    22    23    24   ar
    23    24    25   ar
    24    25    26   ar
    25    26    27   ar
    26    27    28    1
    27    28    29    1
    28    29    30    1
    29    30    31    2
    30    27    22   ar
    31     6     1    1
    32    16    12   ar
    33    30    26    1
    34    10     4    1
    35    19    20    1
@<TRIPOS>MOLECULE
*****
 31 35 0 0 0
SMALL
GASTEIGER

@<TRIPOS>ATOM
      1 N         144.9476  141.5587  163.2443 N.3     1  UNL1       -0.2703
      2 C         144.7367  141.9059  161.8004 C.3     1  UNL1        0.0727
      3 C         144.1828  140.8808  160.8557 C.3     1  UNL1        0.0260
      4 C         143.8399  139.5085  161.3550 C.3     1  UNL1        0.0737
      5 C         144.0508  139.1613  162.7989 C.3     1  UNL1        0.0260
      6 C         144.6047  140.1864  163.7436 C.3     1  UNL1        0.0727
      7 C         143.4527  138.1028  161.7074 C.3     1  UNL1        0.0306
      8 C         142.9494  137.4346  160.4622 C.3     1  UNL1        0.1002
      9 N         143.0256  138.4274  159.3403 N.am    1  UNL1       -0.2421
     10 C         143.5759  139.7091  159.8920 C.2     1  UNL1        0.2296
     11 O         143.8195  140.9700  159.1170 O.2     1  UNL1       -0.2745
     12 C         142.6223  138.1816  157.9167 C.ar    1  UNL1        0.1667
     13 C         141.2375  137.8657  157.4346 C.ar    1  UNL1        0.1441
     14 N         141.2923  137.6974  155.9451 N.ar    1  UNL1       -0.1871
     15 S         142.7110  137.9094  155.5065 S.2     1  UNL1        0.1178
     16 N         143.5330  138.2086  156.7251 N.ar    1  UNL1       -0.1746
     17 C         145.5015  142.5838  164.1890 C.3     1  UNL1        0.1063
     18 C         144.5721  143.4154  165.0224 C.3     1  UNL1        0.1483
     19 O         145.0488  144.0028  166.3177 O.3     1  UNL1       -0.3786
     20 H         144.3295  144.5081  166.7277 H       1  UNL1        0.2108
     21 C         142.3149  141.8088  166.1731 C.3     1  UNL1        0.0306
     22 C         142.0375  142.8563  165.1359 C.ar    1  UNL1       -0.0238
     23 C         143.1660  143.6596  164.5606 C.ar    1  UNL1        0.0015
     24 C         142.8885  144.7071  163.5234 C.ar    1  UNL1       -0.0020
     25 C         141.4825  144.9513  163.0616 C.ar    1  UNL1        0.0060
     26 C         140.3539  144.1481  163.6369 C.ar    1  UNL1        0.0748
     27 C         140.6314  143.1006  164.6741 C.ar    1  UNL1        0.0233
     28 C         139.3254  142.4699  165.0569 C.3     1  UNL1        0.2352
     29 O         138.2407  143.1276  164.2564 O.3     1  UNL1       -0.4404
     30 C         138.8764  144.1647  163.3788 C.2     1  UNL1        0.3413
     31 O         138.1603  145.0613  162.4126 O.2     1  UNL1       -0.2449
@<TRIPOS>BOND
     1    21    22    1
     2    22    23   ar
     3    23    18    1
     4    18    19    1
     5    18    17    1
     6    17     1    1
     7     1     2    1
     8     2     3    1
     9     3     4    1
    10     4     5    1
    11     5     6    1
    12     4     7    1
    13     7     8    1
    14     8     9    1
    15     9    12    1
    16    12    13   ar
    17    13    14   ar
    18    14    15   ar
    19    15    16   ar
    20     9    10   am
    21    10    11    2
    22    23    24   ar
    23    24    25   ar
    24    25    26   ar
    25    26    27   ar
    26    27    28    1
    27    28    29    1
    28    29    30    1
    29    30    31    2
    30    27    22   ar
    31     6     1    1
    32    16    12   ar
    33    30    26    1
    34    10     4    1
    35    19    20    1
@<TRIPOS>MOLECULE
*****
 31 35 0 0 0
SMALL
GASTEIGER

@<TRIPOS>ATOM
      1 N         139.8942  138.3245  163.0637 N.3     1  UNL1       -0.2703
      2 C         139.1422  139.0482  164.1410 C.3     1  UNL1        0.0727
      3 C         139.8173  139.3681  165.4417 C.3     1  UNL1        0.0260
      4 C         141.2446  138.9643  165.6651 C.3     1  UNL1        0.0737
      5 C         141.9967  138.2406  164.5878 C.3     1  UNL1        0.0260
      6 C         141.3215  137.9207  163.2871 C.3     1  UNL1        0.0727
      7 C         142.6594  138.6256  166.0307 C.3     1  UNL1        0.0306
      8 C         142.9127  139.1310  167.4202 C.3     1  UNL1        0.1002
      9 N         141.6544  139.7820  167.9132 N.am    1  UNL1       -0.2421
     10 C         140.6235  139.6790  166.8285 C.2     1  UNL1        0.2296
     11 O         139.2182  140.1992  166.8954 O.2     1  UNL1       -0.2745
     12 C         141.4611  140.4234  169.2552 C.ar    1  UNL1        0.1667
     13 C         140.4735  139.9987  170.3013 C.ar    1  UNL1        0.1441
     14 N         140.6234  140.9150  171.4794 N.ar    1  UNL1       -0.1871
     15 S         141.7036  141.9060  171.1616 S.2     1  UNL1        0.1178
     16 N         142.2213  141.6021  169.7868 N.ar    1  UNL1       -0.1746
     17 C         139.2191  138.0046  161.7630 C.3     1  UNL1        0.1063
     18 C         139.3791  138.9242  160.5888 C.3     1  UNL1        0.1483
     19 O         139.4713  138.3606  159.2018 O.3     1  UNL1       -0.3786
     20 H         139.5714  139.0849  158.5644 H       1  UNL1        0.2108
     21 C         142.0309  140.3264  160.5433 C.3     1  UNL1        0.0306
     22 C         140.7728  141.1086  160.7789 C.ar    1  UNL1       -0.0238
     23 C         139.4470  140.4075  160.8017 C.ar    1  UNL1        0.0015
     24 C         138.1889  141.1897  161.0372 C.ar    1  UNL1       -0.0020
     25 C         138.2567  142.6729  161.2500 C.ar    1  UNL1        0.0060
     26 C         139.5825  143.3740  161.2273 C.ar    1  UNL1        0.0748
     27 C         140.8406  142.5919  160.9917 C.ar    1  UNL1        0.0233
     28 C         141.9946  143.5496  161.0233 C.3     1  UNL1        0.2352
     29 O         141.4498  144.9237  161.2784 O.3     1  UNL1       -0.4404
     30 C         139.9591  144.8152  161.4045 C.2     1  UNL1        0.3413
     31 O         139.0112  145.9487  161.6624 O.2     1  UNL1       -0.2449
@<TRIPOS>BOND
     1    21    22    1
     2    22    23   ar
     3    23    18    1
     4    18    19    1
     5    18    17    1
     6    17     1    1
     7     1     2    1
     8     2     3    1
     9     3     4    1
    10     4     5    1
    11     5     6    1
    12     4     7    1
    13     7     8    1
    14     8     9    1
    15     9    12    1
    16    12    13   ar
    17    13    14   ar
    18    14    15   ar
    19    15    16   ar
    20     9    10   am
    21    10    11    2
    22    23    24   ar
    23    24    25   ar
    24    25    26   ar
    25    26    27   ar
    26    27    28    1
    27    28    29    1
    28    29    30    1
    29    30    31    2
    30    27    22   ar
    31     6     1    1
    32    16    12   ar
    33    30    26    1
    34    10     4    1
    35    19    20    1
@<TRIPOS>MOLECULE
*****
 31 35 0 0 0
SMALL
GASTEIGER

@<TRIPOS>ATOM
      1 N         142.8475  138.9381  165.3345 N.3     1  UNL1       -0.2703
      2 C         141.8961  138.1624  164.4725 C.3     1  UNL1        0.0727
      3 C         142.0801  138.1405  162.9840 C.3     1  UNL1        0.0260
      4 C         143.2155  138.8943  162.3575 C.3     1  UNL1        0.0737
      5 C         144.1669  139.6701  163.2194 C.3     1  UNL1        0.0260
      6 C         143.9829  139.6920  164.7079 C.3     1  UNL1        0.0727
      7 C         144.2984  139.5959  161.5925 C.3     1  UNL1        0.0306
      8 C         144.1010  139.3021  160.1348 C.3     1  UNL1        0.1002
      9 N         142.8962  138.4190  159.9989 N.am    1  UNL1       -0.2421
     10 C         142.3489  138.1669  161.3725 C.2     1  UNL1        0.2296
     11 O         141.1462  137.3339  161.7033 O.2     1  UNL1       -0.2745
     12 C         142.3368  137.8822  158.7148 C.ar    1  UNL1        0.1667
     13 C         140.9814  138.1855  158.1486 C.ar    1  UNL1        0.1441
     14 N         140.8416  137.4386  156.8553 N.ar    1  UNL1       -0.1871
     15 S         142.1106  136.6736  156.6222 S.2     1  UNL1        0.1178
     16 N         143.0347  136.9478  157.7716 N.ar    1  UNL1       -0.1746
     17 C         142.6635  138.9601  166.8230 C.3     1  UNL1        0.1063
     18 C         141.7071  139.9331  167.4463 C.3     1  UNL1        0.1483
     19 O         141.4095  139.8564  168.9144 O.3     1  UNL1       -0.3786
     20 H         140.7768  140.5519  169.1529 H       1  UNL1        0.2108
     21 C         138.9748  139.4452  166.3076 C.3     1  UNL1        0.0306
     22 C         139.6821  140.7390  166.0320 C.ar    1  UNL1       -0.0238
     23 C         141.0482  140.9829  166.6013 C.ar    1  UNL1        0.0015
     24 C         141.7555  142.2766  166.3257 C.ar    1  UNL1       -0.0020
     25 C         141.0967  143.3264  165.4808 C.ar    1  UNL1        0.0060
     26 C         139.7306  143.0825  164.9115 C.ar    1  UNL1        0.0748
     27 C         139.0233  141.7887  165.1871 C.ar    1  UNL1        0.0233
     28 C         137.6928  141.8314  164.4957 C.3     1  UNL1        0.2352
     29 O         137.5778  143.1515  163.7928 O.3     1  UNL1       -0.4404
     30 C         138.8373  143.9247  164.0498 C.2     1  UNL1        0.3413
     31 O         139.1487  145.2989  163.5354 O.2     1  UNL1       -0.2449
@<TRIPOS>BOND
     1    21    22    1
     2    22    23   ar
     3    23    18    1
     4    18    19    1
     5    18    17    1
     6    17     1    1
     7     1     2    1
     8     2     3    1
     9     3     4    1
    10     4     5    1
    11     5     6    1
    12     4     7    1
    13     7     8    1
    14     8     9    1
    15     9    12    1
    16    12    13   ar
    17    13    14   ar
    18    14    15   ar
    19    15    16   ar
    20     9    10   am
    21    10    11    2
    22    23    24   ar
    23    24    25   ar
    24    25    26   ar
    25    26    27   ar
    26    27    28    1
    27    28    29    1
    28    29    30    1
    29    30    31    2
    30    27    22   ar
    31     6     1    1
    32    16    12   ar
    33    30    26    1
    34    10     4    1
    35    19    20    1
@<TRIPOS>MOLECULE
*****
 31 35 0 0 0
SMALL
GASTEIGER

@<TRIPOS>ATOM
      1 N         139.1001  138.5474  164.0801 N.3     1  UNL1       -0.2703
      2 C         140.3972  138.0101  163.5522 C.3     1  UNL1        0.0727
      3 C         140.7136  138.1168  162.0899 C.3     1  UNL1        0.0260
      4 C         139.7328  138.7608  161.1554 C.3     1  UNL1        0.0737
      5 C         138.4356  139.2981  161.6832 C.3     1  UNL1        0.0260
      6 C         138.1193  139.1914  163.1456 C.3     1  UNL1        0.0727
      7 C         138.8547  139.3753  160.1059 C.3     1  UNL1        0.0306
      8 C         139.5621  139.2660  158.7876 C.3     1  UNL1        0.1002
      9 N         140.8773  138.5839  159.0224 N.am    1  UNL1       -0.2421
     10 C         140.9828  138.2717  160.4857 C.2     1  UNL1        0.2296
     11 O         142.1358  137.5901  161.1609 O.2     1  UNL1       -0.2745
     12 C         141.9062  138.2693  157.9774 C.ar    1  UNL1        0.1667
     13 C         143.0156  139.1751  157.5316 C.ar    1  UNL1        0.1441
     14 N         143.8016  138.4593  156.4733 N.ar    1  UNL1       -0.1871
     15 S         143.1780  137.1111  156.2650 S.2     1  UNL1        0.1178
     16 N         142.0065  136.9937  157.1946 N.ar    1  UNL1       -0.1746
     17 C         138.7836  138.4408  165.5425 C.3     1  UNL1        0.1063
     18 C         139.2123  139.5271  166.4838 C.3     1  UNL1        0.1483
     19 O         138.8642  139.4381  167.9401 O.3     1  UNL1       -0.3786
     20 H         139.2136  140.2151  168.4041 H       1  UNL1        0.2108
     21 C         142.2117  139.4726  166.5145 C.3     1  UNL1        0.0306
     22 C         141.4888  140.6751  165.9841 C.ar    1  UNL1       -0.0238
     23 C         139.9892  140.7024  165.9687 C.ar    1  UNL1        0.0015
     24 C         139.2663  141.9050  165.4384 C.ar    1  UNL1       -0.0020
     25 C         140.0431  143.0803  164.9234 C.ar    1  UNL1        0.0060
     26 C         141.5427  143.0530  164.9387 C.ar    1  UNL1        0.0748
     27 C         142.2656  141.8504  165.4691 C.ar    1  UNL1        0.0233
     28 C         143.7390  142.1092  165.3586 C.3     1  UNL1        0.2352
     29 O         143.9267  143.4717  164.7599 O.3     1  UNL1       -0.4404
     30 C         142.5693  144.0550  164.5005 C.2     1  UNL1        0.3413
     31 O         142.2880  145.4035  163.9069 O.2     1  UNL1       -0.2449
@<TRIPOS>BOND
     1    21    22    1
     2    22    23   ar
     3    23    18    1
     4    18    19    1
     5    18    17    1
     6    17     1    1
     7     1     2    1
     8     2     3    1
     9     3     4    1
    10     4     5    1
    11     5     6    1
    12     4     7    1
    13     7     8    1
    14     8     9    1
    15     9    12    1
    16    12    13   ar
    17    13    14   ar
    18    14    15   ar
    19    15    16   ar
    20     9    10   am
    21    10    11    2
    22    23    24   ar
    23    24    25   ar
    24    25    26   ar
    25    26    27   ar
    26    27    28    1
    27    28    29    1
    28    29    30    1
    29    30    31    2
    30    27    22   ar
    31     6     1    1
    32    16    12   ar
    33    30    26    1
    34    10     4    1
    35    19    20    1
@<TRIPOS>MOLECULE
*****
 31 35 0 0 0
SMALL
GASTEIGER

@<TRIPOS>ATOM
      1 N         142.1859  143.5825  162.8874 N.3     1  UNL1       -0.2703
      2 C         141.1485  144.5344  162.3701 C.3     1  UNL1        0.0727
      3 C         141.0664  144.8286  160.9016 C.3     1  UNL1        0.0260
      4 C         142.0217  144.1710  159.9503 C.3     1  UNL1        0.0737
      5 C         143.0591  143.2191  160.4676 C.3     1  UNL1        0.0260
      6 C         143.1412  142.9248  161.9361 C.3     1  UNL1        0.0727
      7 C         142.9042  143.5921  158.8844 C.3     1  UNL1        0.0306
      8 C         142.4705  144.1592  157.5651 C.3     1  UNL1        0.1002
      9 N         141.3200  145.0885  157.8157 N.am    1  UNL1       -0.2421
     10 C         141.0426  145.0958  159.2898 C.2     1  UNL1        0.2296
     11 O         139.9738  145.8886  159.9819 O.2     1  UNL1       -0.2745
     12 C         140.5773  145.8727  156.7749 C.ar    1  UNL1        0.1667
     13 C         140.7965  145.7997  155.2928 C.ar    1  UNL1        0.1441
     14 N         139.8397  146.7496  154.6354 N.ar    1  UNL1       -0.1871
     15 S         139.0291  147.4097  155.7111 S.2     1  UNL1        0.1178
     16 N         139.4850  146.8677  157.0334 N.ar    1  UNL1       -0.1746
     17 C         142.2681  143.2882  164.3560 C.3     1  UNL1        0.1063
     18 C         141.3043  142.3249  164.9829 C.3     1  UNL1        0.1483
     19 O         140.3960  141.5026  164.1176 O.3     1  UNL1       -0.3786
     20 H         139.8414  140.9366  164.6770 H       1  UNL1        0.2108
     21 C         142.9348  140.2111  166.3516 C.3     1  UNL1        0.0306
     22 C         142.0640  141.1269  167.1596 C.ar    1  UNL1       -0.0238
     23 C         141.2487  142.1838  166.4753 C.ar    1  UNL1        0.0015
     24 C         140.3779  143.0997  167.2833 C.ar    1  UNL1       -0.0020
     25 C         140.3224  142.9586  168.7756 C.ar    1  UNL1        0.0060
     26 C         141.1376  141.9018  169.4599 C.ar    1  UNL1        0.0748
     27 C         142.0085  140.9859  168.6519 C.ar    1  UNL1        0.0233
     28 C         142.6947  140.0451  169.5974 C.3     1  UNL1        0.2352
     29 O         142.2480  140.3795  170.9898 O.3     1  UNL1       -0.4404
     30 C         141.2857  141.5270  170.9047 C.2     1  UNL1        0.3413
     31 O         140.5930  142.1843  172.0615 O.2     1  UNL1       -0.2449
@<TRIPOS>BOND
     1    21    22    1
     2    22    23   ar
     3    23    18    1
     4    18    19    1
     5    18    17    1
     6    17     1    1
     7     1     2    1
     8     2     3    1
     9     3     4    1
    10     4     5    1
    11     5     6    1
    12     4     7    1
    13     7     8    1
    14     8     9    1
    15     9    12    1
    16    12    13   ar
    17    13    14   ar
    18    14    15   ar
    19    15    16   ar
    20     9    10   am
    21    10    11    2
    22    23    24   ar
    23    24    25   ar
    24    25    26   ar
    25    26    27   ar
    26    27    28    1
    27    28    29    1
    28    29    30    1
    29    30    31    2
    30    27    22   ar
    31     6     1    1
    32    16    12   ar
    33    30    26    1
    34    10     4    1
    35    19    20    1
@<TRIPOS>MOLECULE
*****
 31 35 0 0 0
SMALL
GASTEIGER

@<TRIPOS>ATOM
      1 N         139.9725  138.2763  163.9243 N.3     1  UNL1       -0.2703
      2 C         139.1758  138.5884  162.6923 C.3     1  UNL1        0.0727
      3 C         139.8280  138.5307  161.3428 C.3     1  UNL1        0.0260
      4 C         141.2769  138.1607  161.2252 C.3     1  UNL1        0.0737
      5 C         142.0736  137.8486  162.4572 C.3     1  UNL1        0.0260
      6 C         141.4214  137.9064  163.8067 C.3     1  UNL1        0.0727
      7 C         142.7092  137.8082  160.9525 C.3     1  UNL1        0.0306
      8 C         142.9289  137.8749  159.4701 C.3     1  UNL1        0.1002
      9 N         141.6323  138.2687  158.8267 N.am    1  UNL1       -0.2421
     10 C         140.6114  138.4454  159.9113 C.2     1  UNL1        0.2296
     11 O         139.1768  138.8377  159.7165 O.2     1  UNL1       -0.2745
     12 C         141.3978  138.4534  157.3567 C.ar    1  UNL1        0.1667
     13 C         141.5728  137.4058  156.2975 C.ar    1  UNL1        0.1441
     14 N         141.2303  138.0231  154.9740 N.ar    1  UNL1       -0.1871
     15 S         140.8438  139.4523  155.2152 S.2     1  UNL1        0.1178
     16 N         140.9473  139.7182  156.6878 N.ar    1  UNL1       -0.1746
     17 C         139.3203  138.3341  165.2739 C.3     1  UNL1        0.1063
     18 C         138.8885  139.6533  165.8423 C.3     1  UNL1        0.1483
     19 O         137.7266  140.3856  165.2393 O.3     1  UNL1       -0.3786
     20 H         137.5811  141.2144  165.7218 H       1  UNL1        0.2108
     21 C         141.3703  141.2800  165.4012 C.3     1  UNL1        0.0306
     22 C         140.8595  141.0536  166.7932 C.ar    1  UNL1       -0.0238
     23 C         139.6187  140.2403  167.0138 C.ar    1  UNL1        0.0015
     24 C         139.1079  140.0139  168.4059 C.ar    1  UNL1       -0.0020
     25 C         139.8380  140.6008  169.5774 C.ar    1  UNL1        0.0060
     26 C         141.0789  141.4142  169.3568 C.ar    1  UNL1        0.0748
     27 C         141.5896  141.6406  167.9647 C.ar    1  UNL1        0.0233
     28 C         142.8297  142.4795  168.0567 C.3     1  UNL1        0.2352
     29 O         143.0854  142.7715  169.5056 O.3     1  UNL1       -0.4404
     30 C         142.0033  142.1132  170.3091 C.2     1  UNL1        0.3413
     31 O         141.8692  142.1477  171.8027 O.2     1  UNL1       -0.2449
@<TRIPOS>BOND
     1    21    22    1
     2    22    23   ar
     3    23    18    1
     4    18    19    1
     5    18    17    1
     6    17     1    1
     7     1     2    1
     8     2     3    1
     9     3     4    1
    10     4     5    1
    11     5     6    1
    12     4     7    1
    13     7     8    1
    14     8     9    1
    15     9    12    1
    16    12    13   ar
    17    13    14   ar
    18    14    15   ar
    19    15    16   ar
    20     9    10   am
    21    10    11    2
    22    23    24   ar
    23    24    25   ar
    24    25    26   ar
    25    26    27   ar
    26    27    28    1
    27    28    29    1
    28    29    30    1
    29    30    31    2
    30    27    22   ar
    31     6     1    1
    32    16    12   ar
    33    30    26    1
    34    10     4    1
    35    19    20    1
