@<TRIPOS>MOLECULE
*****
 36 40 0 0 0
SMALL
GASTEIGER

@<TRIPOS>ATOM
      1 C         137.8579  138.8153  167.3746 C.3     1  UNL1        0.1122
      2 N         138.6623  139.7667  166.5394 N.pl3   1  UNL1       -0.3046
      3 C         138.1298  140.0346  165.1630 C.3     1  UNL1        0.1070
      4 C         138.6965  140.9265  164.0983 C.3     1  UNL1        0.0819
      5 N         139.9354  141.7707  164.1470 N.3     1  UNL1       -0.2695
      6 C         140.9137  141.9315  165.2727 C.3     1  UNL1        0.1004
      7 C         140.8948  141.2879  166.6275 C.ar    1  UNL1        0.0080
      8 C         142.0668  141.7220  167.4568 C.ar    1  UNL1        0.0097
      9 C         142.2368  141.1927  168.8500 C.ar    1  UNL1        0.0575
     10 CL        143.4089  141.6268  169.6794 Cl      1  UNL1       -0.0823
     11 C         141.2348  140.2293  169.4138 C.ar    1  UNL1        0.0126
     12 C         140.0628  139.7952  168.5844 C.ar    1  UNL1        0.0151
     13 C         139.8928  140.3244  167.1912 C.ar    1  UNL1        0.0452
     14 C         140.2357  142.5582  162.9062 C.3     1  UNL1        0.0612
     15 C         141.2915  142.0820  161.9529 C.3     1  UNL1        0.0375
     16 C         141.5917  142.8695  160.7121 C.3     1  UNL1        0.0950
     17 N         140.8363  144.1331  160.4245 N.pl3   1  UNL1       -0.2784
     18 C         139.7806  144.6093  161.3779 C.3     1  UNL1        0.0950
     19 C         139.4803  143.8217  162.6187 C.3     1  UNL1        0.0375
     20 C         141.1366  144.9206  159.1837 C.ar    1  UNL1        0.2194
     21 N         142.4899  145.1081  158.5643 N.ar    1  UNL1       -0.1117
     22 N         142.3260  145.9622  157.3423 N.ar    1  UNL1       -0.1121
     23 C         140.8715  146.3026  157.2062 C.ar    1  UNL1        0.2131
     24 N         140.2595  147.1398  156.1224 N.pl3   1  UNL1       -0.3277
     25 N         140.1364  145.6588  158.3444 N.ar    1  UNL1       -0.2979
     26 H         140.8279  147.5211  155.4148 H       1  UNL1        0.1451
     27 H         139.2895  147.3080  156.1188 H       1  UNL1        0.1451
     28 H         139.1676  145.7116  158.5112 H       1  UNL1        0.1713
     29 C         137.9216  140.9814  162.8150 C.3     1  UNL1        0.0440
     30 C         138.4223  140.2505  161.6047 C.ar    1  UNL1       -0.0207
     31 C         139.1378  138.9414  161.7618 C.ar    1  UNL1       -0.0034
     32 C         139.6385  138.2105  160.5514 C.ar    1  UNL1        0.0111
     33 C         139.4238  138.7885  159.1840 C.ar    1  UNL1        0.0577
     34 CL        139.9245  138.0574  157.9736 Cl      1  UNL1       -0.0822
     35 C         138.7084  140.0974  159.0269 C.ar    1  UNL1        0.0111
     36 C         138.2076  140.8285  160.2373 C.ar    1  UNL1       -0.0034
@<TRIPOS>BOND
     1     1     2    1
     2     2     3    1
     3     3     4    1
     4     4    29    1
     5    29    30    1
     6    30    31   ar
     7    31    32   ar
     8    32    33   ar
     9    33    34    1
    10    33    35   ar
    11    35    36   ar
    12     4     5    1
    13     5    14    1
    14    14    15    1
    15    15    16    1
    16    16    17    1
    17    17    20    1
    18    20    21   ar
    19    21    22   ar
    20    22    23   ar
    21    23    24    1
    22    23    25   ar
    23    17    18    1
    24    18    19    1
    25     5     6    1
    26     6     7    1
    27     7     8   ar
    28     8     9   ar
    29     9    10    1
    30     9    11   ar
    31    11    12   ar
    32    12    13   ar
    33    13     2    1
    34    36    30   ar
    35    19    14    1
    36    13     7   ar
    37    25    20   ar
    38    24    26    1
    39    24    27    1
    40    25    28    1
@<TRIPOS>MOLECULE
*****
 36 40 0 0 0
SMALL
GASTEIGER

@<TRIPOS>ATOM
      1 C         140.7098  146.0590  156.9630 C.3     1  UNL1        0.1122
      2 N         140.1818  145.0266  157.9145 N.pl3   1  UNL1       -0.3046
      3 C         140.6739  145.1318  159.3276 C.3     1  UNL1        0.1070
      4 C         140.3371  144.2619  160.5022 C.3     1  UNL1        0.0819
      5 N         139.4253  143.0719  160.5540 N.3     1  UNL1       -0.2695
      6 C         138.6250  142.4581  159.4437 C.3     1  UNL1        0.1004
      7 C         138.5387  142.8825  158.0076 C.ar    1  UNL1        0.0080
      8 C         137.6183  141.9916  157.2272 C.ar    1  UNL1        0.0097
      9 C         137.3908  142.2438  155.7662 C.ar    1  UNL1        0.0575
     10 CL        136.4703  141.3529  154.9857 Cl      1  UNL1       -0.0823
     11 C         138.0836  143.3869  155.0856 C.ar    1  UNL1        0.0126
     12 C         139.0041  144.2778  155.8660 C.ar    1  UNL1        0.0151
     13 C         139.2316  144.0256  157.3270 C.ar    1  UNL1        0.0452
     14 C         139.2969  142.4081  161.8929 C.3     1  UNL1        0.0612
     15 C         138.3237  142.9395  162.9032 C.3     1  UNL1        0.0375
     16 C         138.1953  142.2757  164.2422 C.3     1  UNL1        0.0950
     17 N         139.0399  141.0805  164.5709 N.pl3   1  UNL1       -0.2784
     18 C         140.0131  140.5490  163.5605 C.3     1  UNL1        0.0950
     19 C         140.1415  141.2129  162.2216 C.3     1  UNL1        0.0375
     20 C         138.9115  140.4167  165.9098 C.ar    1  UNL1        0.2194
     21 N         138.0082  139.2656  166.2403 N.ar    1  UNL1       -0.1117
     22 N         138.2022  138.9249  167.6880 N.ar    1  UNL1       -0.1121
     23 C         139.2254  139.8654  168.2525 C.ar    1  UNL1        0.2131
     24 N         139.7229  139.8810  169.6675 N.pl3   1  UNL1       -0.3277
     25 N         139.6638  140.7873  167.1534 N.ar    1  UNL1       -0.2979
     26 H         139.3727  139.2319  170.3196 H       1  UNL1        0.1451
     27 H         140.3996  140.5404  169.9441 H       1  UNL1        0.1451
     28 H         140.3286  141.5090  167.2342 H       1  UNL1        0.1713
     29 C         140.9999  144.6306  161.7963 C.3     1  UNL1        0.0440
     30 C         142.2418  143.9123  162.2343 C.ar    1  UNL1       -0.0207
     31 C         142.5771  143.8153  163.6932 C.ar    1  UNL1       -0.0034
     32 C         143.8189  143.0970  164.1312 C.ar    1  UNL1        0.0111
     33 C         144.7255  142.4757  163.1104 C.ar    1  UNL1        0.0577
     34 CL        145.9673  141.7573  163.5484 Cl      1  UNL1       -0.0822
     35 C         144.3902  142.5726  161.6516 C.ar    1  UNL1        0.0111
     36 C         143.1483  143.2910  161.2135 C.ar    1  UNL1       -0.0034
@<TRIPOS>BOND
     1     1     2    1
     2     2     3    1
     3     3     4    1
     4     4    29    1
     5    29    30    1
     6    30    31   ar
     7    31    32   ar
     8    32    33   ar
     9    33    34    1
    10    33    35   ar
    11    35    36   ar
    12     4     5    1
    13     5    14    1
    14    14    15    1
    15    15    16    1
    16    16    17    1
    17    17    20    1
    18    20    21   ar
    19    21    22   ar
    20    22    23   ar
    21    23    24    1
    22    23    25   ar
    23    17    18    1
    24    18    19    1
    25     5     6    1
    26     6     7    1
    27     7     8   ar
    28     8     9   ar
    29     9    10    1
    30     9    11   ar
    31    11    12   ar
    32    12    13   ar
    33    13     2    1
    34    36    30   ar
    35    19    14    1
    36    13     7   ar
    37    25    20   ar
    38    24    26    1
    39    24    27    1
    40    25    28    1
@<TRIPOS>MOLECULE
*****
 36 40 0 0 0
SMALL
GASTEIGER

@<TRIPOS>ATOM
      1 C         141.7488  138.7690  155.6860 C.3     1  UNL1        0.1122
      2 N         140.9569  139.0633  156.9255 N.pl3   1  UNL1       -0.3046
      3 C         141.5539  138.5723  158.2110 C.3     1  UNL1        0.1070
      4 C         141.0142  138.7065  159.6041 C.3     1  UNL1        0.0819
      5 N         139.7442  139.3648  160.0558 N.3     1  UNL1       -0.2695
      6 C         138.7004  140.0514  159.2258 C.3     1  UNL1        0.1004
      7 C         138.6686  140.2495  157.7393 C.ar    1  UNL1        0.0080
      8 C         137.4377  140.9924  157.3116 C.ar    1  UNL1        0.0097
      9 C         137.2112  141.2956  155.8602 C.ar    1  UNL1        0.0575
     10 CL        135.9802  142.0386  155.4324 Cl      1  UNL1       -0.0823
     11 C         138.2154  140.8558  154.8364 C.ar    1  UNL1        0.0126
     12 C         139.4463  140.1129  155.2641 C.ar    1  UNL1        0.0151
     13 C         139.6729  139.8097  156.7155 C.ar    1  UNL1        0.0452
     14 C         139.4837  139.3320  161.5326 C.3     1  UNL1        0.0612
     15 C         139.0249  138.0617  162.1853 C.3     1  UNL1        0.0375
     16 C         138.7644  138.0290  163.6621 C.3     1  UNL1        0.0950
     17 N         138.9627  139.2665  164.4863 N.pl3   1  UNL1       -0.2784
     18 C         139.4215  140.5368  163.8336 C.3     1  UNL1        0.0950
     19 C         139.6820  140.5695  162.3568 C.3     1  UNL1        0.0375
     20 C         138.7022  139.2338  165.9631 C.ar    1  UNL1        0.2194
     21 N         137.5842  138.5025  166.6452 N.ar    1  UNL1       -0.1117
     22 N         137.7050  138.7433  168.1208 N.ar    1  UNL1       -0.1121
     23 C         138.8977  139.6234  168.3507 C.ar    1  UNL1        0.2131
     24 N         139.3879  140.1142  169.6807 N.pl3   1  UNL1       -0.3277
     25 N         139.5140  139.9266  167.0172 N.ar    1  UNL1       -0.2979
     26 H         138.9133  139.8596  170.5048 H       1  UNL1        0.1451
     27 H         140.1843  140.6910  169.7294 H       1  UNL1        0.1451
     28 H         140.3113  140.4826  166.8611 H       1  UNL1        0.1713
     29 C         141.8557  138.1025  160.6891 C.3     1  UNL1        0.0440
     30 C         142.8488  138.9500  161.4275 C.ar    1  UNL1       -0.0207
     31 C         143.3682  140.2118  160.8043 C.ar    1  UNL1       -0.0034
     32 C         144.3614  141.0593  161.5427 C.ar    1  UNL1        0.0111
     33 C         144.8353  140.6451  162.9043 C.ar    1  UNL1        0.0577
     34 CL        145.8285  141.4927  163.6427 Cl      1  UNL1       -0.0822
     35 C         144.3159  139.3834  163.5275 C.ar    1  UNL1        0.0111
     36 C         143.3227  138.5358  162.7891 C.ar    1  UNL1       -0.0034
@<TRIPOS>BOND
     1     1     2    1
     2     2     3    1
     3     3     4    1
     4     4    29    1
     5    29    30    1
     6    30    31   ar
     7    31    32   ar
     8    32    33   ar
     9    33    34    1
    10    33    35   ar
    11    35    36   ar
    12     4     5    1
    13     5    14    1
    14    14    15    1
    15    15    16    1
    16    16    17    1
    17    17    20    1
    18    20    21   ar
    19    21    22   ar
    20    22    23   ar
    21    23    24    1
    22    23    25   ar
    23    17    18    1
    24    18    19    1
    25     5     6    1
    26     6     7    1
    27     7     8   ar
    28     8     9   ar
    29     9    10    1
    30     9    11   ar
    31    11    12   ar
    32    12    13   ar
    33    13     2    1
    34    36    30   ar
    35    19    14    1
    36    13     7   ar
    37    25    20   ar
    38    24    26    1
    39    24    27    1
    40    25    28    1
@<TRIPOS>MOLECULE
*****
 36 40 0 0 0
SMALL
GASTEIGER

@<TRIPOS>ATOM
      1 C         143.0594  142.8266  157.5373 C.3     1  UNL1        0.1122
      2 N         142.8932  141.9688  158.7566 N.pl3   1  UNL1       -0.3046
      3 C         142.8134  142.7026  160.0624 C.3     1  UNL1        0.1070
      4 C         142.6494  142.1394  161.4430 C.3     1  UNL1        0.0819
      5 N         142.5248  140.7035  161.8587 N.3     1  UNL1       -0.2695
      6 C         142.5333  139.4762  160.9964 C.3     1  UNL1        0.1004
      7 C         142.6686  139.3815  159.5055 C.ar    1  UNL1        0.0080
      8 C         142.6278  137.9559  159.0410 C.ar    1  UNL1        0.0097
      9 C         142.7471  137.6396  157.5796 C.ar    1  UNL1        0.0575
     10 CL        142.7062  136.2139  157.1150 Cl      1  UNL1       -0.0823
     11 C         142.9072  138.7489  156.5828 C.ar    1  UNL1        0.0126
     12 C         142.9481  140.1746  157.0473 C.ar    1  UNL1        0.0151
     13 C         142.8288  140.4909  158.5087 C.ar    1  UNL1        0.0452
     14 C         142.3713  140.4633  163.3313 C.3     1  UNL1        0.0612
     15 C         143.5532  140.6131  164.2429 C.3     1  UNL1        0.0375
     16 C         143.3997  140.3728  165.7156 C.3     1  UNL1        0.0950
     17 N         142.0644  139.9828  166.2767 N.pl3   1  UNL1       -0.2784
     18 C         140.8826  139.8329  165.3652 C.3     1  UNL1        0.0950
     19 C         141.0361  140.0732  163.8925 C.3     1  UNL1        0.0375
     20 C         141.9110  139.7425  167.7493 C.ar    1  UNL1        0.2194
     21 N         142.9619  139.1918  168.6671 N.ar    1  UNL1       -0.1117
     22 N         142.3801  139.1197  170.0477 N.ar    1  UNL1       -0.1121
     23 C         140.9695  139.6258  169.9833 C.ar    1  UNL1        0.2131
     24 N         140.0163  139.7289  171.1369 N.pl3   1  UNL1       -0.3277
     25 N         140.6796  140.0107  168.5628 N.ar    1  UNL1       -0.2979
     26 H         140.3009  139.4497  172.0371 H       1  UNL1        0.1451
     27 H         139.1061  140.0757  170.9938 H       1  UNL1        0.1451
     28 H         139.8302  140.3754  168.2239 H       1  UNL1        0.1713
     29 C         142.6041  143.1451  162.5550 C.3     1  UNL1        0.0440
     30 C         141.2938  143.4981  163.1941 C.ar    1  UNL1       -0.0207
     31 C         141.1987  143.6324  164.6851 C.ar    1  UNL1       -0.0034
     32 C         139.8884  143.9854  165.3242 C.ar    1  UNL1        0.0111
     33 C         138.6732  144.2040  164.4724 C.ar    1  UNL1        0.0577
     34 CL        137.3629  144.5569  165.1117 Cl      1  UNL1       -0.0822
     35 C         138.7683  144.0696  162.9815 C.ar    1  UNL1        0.0111
     36 C         140.0787  143.7166  162.3423 C.ar    1  UNL1       -0.0034
@<TRIPOS>BOND
     1     1     2    1
     2     2     3    1
     3     3     4    1
     4     4    29    1
     5    29    30    1
     6    30    31   ar
     7    31    32   ar
     8    32    33   ar
     9    33    34    1
    10    33    35   ar
    11    35    36   ar
    12     4     5    1
    13     5    14    1
    14    14    15    1
    15    15    16    1
    16    16    17    1
    17    17    20    1
    18    20    21   ar
    19    21    22   ar
    20    22    23   ar
    21    23    24    1
    22    23    25   ar
    23    17    18    1
    24    18    19    1
    25     5     6    1
    26     6     7    1
    27     7     8   ar
    28     8     9   ar
    29     9    10    1
    30     9    11   ar
    31    11    12   ar
    32    12    13   ar
    33    13     2    1
    34    36    30   ar
    35    19    14    1
    36    13     7   ar
    37    25    20   ar
    38    24    26    1
    39    24    27    1
    40    25    28    1
@<TRIPOS>MOLECULE
*****
 36 40 0 0 0
SMALL
GASTEIGER

@<TRIPOS>ATOM
      1 C         144.3286  141.4752  156.2572 C.3     1  UNL1        0.1122
      2 N         143.9229  140.7981  157.5327 N.pl3   1  UNL1       -0.3046
      3 C         144.0022  141.6411  158.7708 C.3     1  UNL1        0.1070
      4 C         143.6696  141.2617  160.1835 C.3     1  UNL1        0.0819
      5 N         143.1757  139.9456  160.7069 N.3     1  UNL1       -0.2695
      6 C         142.8922  138.6839  159.9468 C.3     1  UNL1        0.1004
      7 C         143.0328  138.4265  158.4757 C.ar    1  UNL1        0.0080
      8 C         142.6423  137.0213  158.1254 C.ar    1  UNL1        0.0097
      9 C         142.7105  136.5569  156.7008 C.ar    1  UNL1        0.0575
     10 CL        142.3201  135.1516  156.3504 Cl      1  UNL1       -0.0823
     11 C         143.1692  137.4979  155.6264 C.ar    1  UNL1        0.0126
     12 C         143.5597  138.9031  155.9767 C.ar    1  UNL1        0.0151
     13 C         143.4914  139.3675  157.4013 C.ar    1  UNL1        0.0452
     14 C         142.9331  139.8830  162.1857 C.3     1  UNL1        0.0612
     15 C         141.5726  140.1930  162.7364 C.3     1  UNL1        0.0375
     16 C         141.3300  140.1303  164.2153 C.3     1  UNL1        0.0950
     17 N         142.4478  139.7577  165.1436 N.pl3   1  UNL1       -0.2784
     18 C         143.8083  139.4477  164.5930 C.3     1  UNL1        0.0950
     19 C         144.0508  139.5104  163.1140 C.3     1  UNL1        0.0375
     20 C         142.2052  139.6951  166.6225 C.ar    1  UNL1        0.2194
     21 N         141.0539  140.3188  167.3543 N.ar    1  UNL1       -0.1117
     22 N         141.2084  140.0070  168.8133 N.ar    1  UNL1       -0.1121
     23 C         142.4552  139.1905  168.9833 C.ar    1  UNL1        0.2131
     24 N         142.9918  138.6600  170.2797 N.pl3   1  UNL1       -0.3277
     25 N         143.0713  138.9978  167.6293 N.ar    1  UNL1       -0.2979
     26 H         142.5134  138.8404  171.1211 H       1  UNL1        0.1451
     27 H         143.8222  138.1313  170.2892 H       1  UNL1        0.1451
     28 H         143.8988  138.5008  167.4354 H       1  UNL1        0.1713
     29 C         143.8557  142.3411  161.2083 C.3     1  UNL1        0.0440
     30 C         142.8034  143.3950  161.3871 C.ar    1  UNL1       -0.0207
     31 C         142.5359  143.9644  162.7488 C.ar    1  UNL1       -0.0034
     32 C         141.4836  145.0182  162.9276 C.ar    1  UNL1        0.0111
     33 C         140.6987  145.5027  161.7447 C.ar    1  UNL1        0.0577
     34 CL        139.6463  146.5566  161.9236 Cl      1  UNL1       -0.0822
     35 C         140.9661  144.9333  160.3830 C.ar    1  UNL1        0.0111
     36 C         142.0184  143.8794  160.2042 C.ar    1  UNL1       -0.0034
@<TRIPOS>BOND
     1     1     2    1
     2     2     3    1
     3     3     4    1
     4     4    29    1
     5    29    30    1
     6    30    31   ar
     7    31    32   ar
     8    32    33   ar
     9    33    34    1
    10    33    35   ar
    11    35    36   ar
    12     4     5    1
    13     5    14    1
    14    14    15    1
    15    15    16    1
    16    16    17    1
    17    17    20    1
    18    20    21   ar
    19    21    22   ar
    20    22    23   ar
    21    23    24    1
    22    23    25   ar
    23    17    18    1
    24    18    19    1
    25     5     6    1
    26     6     7    1
    27     7     8   ar
    28     8     9   ar
    29     9    10    1
    30     9    11   ar
    31    11    12   ar
    32    12    13   ar
    33    13     2    1
    34    36    30   ar
    35    19    14    1
    36    13     7   ar
    37    25    20   ar
    38    24    26    1
    39    24    27    1
    40    25    28    1
@<TRIPOS>MOLECULE
*****
 36 40 0 0 0
SMALL
GASTEIGER

@<TRIPOS>ATOM
      1 C         142.1404  142.1251  167.0695 C.3     1  UNL1        0.1122
      2 N         141.7917  141.2480  165.9037 N.pl3   1  UNL1       -0.3046
      3 C         142.6665  141.3950  164.6941 C.3     1  UNL1        0.1070
      4 C         142.5799  140.6702  163.3837 C.3     1  UNL1        0.0819
      5 N         141.5972  139.6193  162.9592 N.3     1  UNL1       -0.2695
      6 C         140.4584  139.0338  163.7405 C.3     1  UNL1        0.1004
      7 C         140.0210  139.3545  165.1390 C.ar    1  UNL1        0.0080
      8 C         138.8300  138.5364  165.5419 C.ar    1  UNL1        0.0097
      9 C         138.2324  138.7038  166.9074 C.ar    1  UNL1        0.0575
     10 CL        137.0414  137.8857  167.3104 Cl      1  UNL1       -0.0823
     11 C         138.8258  139.6892  167.8702 C.ar    1  UNL1        0.0126
     12 C         140.0168  140.5073  167.4673 C.ar    1  UNL1        0.0151
     13 C         140.6144  140.3399  166.1017 C.ar    1  UNL1        0.0452
     14 C         141.7771  139.0831  161.5700 C.3     1  UNL1        0.0612
     15 C         142.8524  138.0759  161.2882 C.3     1  UNL1        0.0375
     16 C         143.0323  137.5397  159.8989 C.3     1  UNL1        0.0950
     17 N         142.1370  138.0107  158.7914 N.pl3   1  UNL1       -0.2784
     18 C         141.0617  139.0179  159.0732 C.3     1  UNL1        0.0950
     19 C         140.8818  139.5541  160.4625 C.3     1  UNL1        0.0375
     20 C         142.3169  137.4745  157.4022 C.ar    1  UNL1        0.2194
     21 N         143.5681  137.5602  156.5791 N.ar    1  UNL1       -0.1117
     22 N         143.3017  136.8972  155.2603 N.ar    1  UNL1       -0.1121
     23 C         141.8859  136.4016  155.2682 C.ar    1  UNL1        0.2131
     24 N         141.1994  135.6765  154.1489 N.pl3   1  UNL1       -0.3277
     25 N         141.2773  136.7584  156.5920 N.ar    1  UNL1       -0.2979
     26 H         141.6852  135.4873  153.3138 H       1  UNL1        0.1451
     27 H         140.2629  135.3898  154.2493 H       1  UNL1        0.1451
     28 H         140.3571  136.5579  156.8787 H       1  UNL1        0.1713
     29 C         143.6125  141.0458  162.3626 C.3     1  UNL1        0.0440
     30 C         143.2600  141.9898  161.2515 C.ar    1  UNL1       -0.0207
     31 C         142.1831  143.0148  161.4515 C.ar    1  UNL1       -0.0034
     32 C         141.8305  143.9587  160.3403 C.ar    1  UNL1        0.0111
     33 C         142.5547  143.8777  159.0293 C.ar    1  UNL1        0.0577
     34 CL        142.2021  144.8217  157.9181 Cl      1  UNL1       -0.0822
     35 C         143.6315  142.8528  158.8293 C.ar    1  UNL1        0.0111
     36 C         143.9842  141.9088  159.9404 C.ar    1  UNL1       -0.0034
@<TRIPOS>BOND
     1     1     2    1
     2     2     3    1
     3     3     4    1
     4     4    29    1
     5    29    30    1
     6    30    31   ar
     7    31    32   ar
     8    32    33   ar
     9    33    34    1
    10    33    35   ar
    11    35    36   ar
    12     4     5    1
    13     5    14    1
    14    14    15    1
    15    15    16    1
    16    16    17    1
    17    17    20    1
    18    20    21   ar
    19    21    22   ar
    20    22    23   ar
    21    23    24    1
    22    23    25   ar
    23    17    18    1
    24    18    19    1
    25     5     6    1
    26     6     7    1
    27     7     8   ar
    28     8     9   ar
    29     9    10    1
    30     9    11   ar
    31    11    12   ar
    32    12    13   ar
    33    13     2    1
    34    36    30   ar
    35    19    14    1
    36    13     7   ar
    37    25    20   ar
    38    24    26    1
    39    24    27    1
    40    25    28    1
@<TRIPOS>MOLECULE
*****
 36 40 0 0 0
SMALL
GASTEIGER

@<TRIPOS>ATOM
      1 C         144.6215  142.4868  157.7474 C.3     1  UNL1        0.1122
      2 N         143.7495  142.7490  158.9394 N.pl3   1  UNL1       -0.3046
      3 C         144.0857  141.9691  160.1758 C.3     1  UNL1        0.1070
      4 C         143.4119  142.0040  161.5156 C.3     1  UNL1        0.0819
      5 N         142.2357  142.8274  161.9498 N.3     1  UNL1       -0.2695
      6 C         141.4428  143.8193  161.1514 C.3     1  UNL1        0.1004
      7 C         141.6301  144.2328  159.7217 C.ar    1  UNL1        0.0080
      8 C         140.6153  145.2579  159.3103 C.ar    1  UNL1        0.0097
      9 C         140.6271  145.8066  157.9143 C.ar    1  UNL1        0.0575
     10 CL        139.6123  146.8317  157.5027 Cl      1  UNL1       -0.0823
     11 C         141.6538  145.3302  156.9299 C.ar    1  UNL1        0.0126
     12 C         142.6685  144.3052  157.3414 C.ar    1  UNL1        0.0151
     13 C         142.6567  143.7564  158.7373 C.ar    1  UNL1        0.0452
     14 C         141.7941  142.6333  163.3701 C.3     1  UNL1        0.0612
     15 C         142.6447  143.1420  164.4961 C.3     1  UNL1        0.0375
     16 C         142.2030  142.9479  165.9165 C.3     1  UNL1        0.0950
     17 N         140.9109  142.2451  166.2108 N.pl3   1  UNL1       -0.2784
     18 C         140.0604  141.7364  165.0847 C.3     1  UNL1        0.0950
     19 C         140.5021  141.9306  163.6644 C.3     1  UNL1        0.0375
     20 C         140.4693  142.0510  167.6310 C.ar    1  UNL1        0.2194
     21 N         140.4325  143.1075  168.6952 N.ar    1  UNL1       -0.1117
     22 N         139.9275  142.4758  169.9584 N.ar    1  UNL1       -0.1121
     23 C         139.6521  141.0287  169.6750 C.ar    1  UNL1        0.2131
     24 N         139.1330  140.0212  170.6575 N.pl3   1  UNL1       -0.3277
     25 N         139.9870  140.7662  168.2366 N.ar    1  UNL1       -0.2979
     26 H         138.9417  140.2912  171.5848 H       1  UNL1        0.1451
     27 H         138.9835  139.0900  170.3752 H       1  UNL1        0.1451
     28 H         139.9047  139.9023  167.7716 H       1  UNL1        0.1713
     29 C         143.9910  141.0953  162.5592 C.3     1  UNL1        0.0440
     30 C         143.2039  139.9150  163.0462 C.ar    1  UNL1       -0.0207
     31 C         143.2601  139.5212  164.4926 C.ar    1  UNL1       -0.0034
     32 C         142.4730  138.3409  164.9796 C.ar    1  UNL1        0.0111
     33 C         141.6296  137.5544  164.0205 C.ar    1  UNL1        0.0577
     34 CL        140.8425  136.3740  164.5076 Cl      1  UNL1       -0.0822
     35 C         141.5733  137.9482  162.5742 C.ar    1  UNL1        0.0111
     36 C         142.3605  139.1285  162.0870 C.ar    1  UNL1       -0.0034
@<TRIPOS>BOND
     1     1     2    1
     2     2     3    1
     3     3     4    1
     4     4    29    1
     5    29    30    1
     6    30    31   ar
     7    31    32   ar
     8    32    33   ar
     9    33    34    1
    10    33    35   ar
    11    35    36   ar
    12     4     5    1
    13     5    14    1
    14    14    15    1
    15    15    16    1
    16    16    17    1
    17    17    20    1
    18    20    21   ar
    19    21    22   ar
    20    22    23   ar
    21    23    24    1
    22    23    25   ar
    23    17    18    1
    24    18    19    1
    25     5     6    1
    26     6     7    1
    27     7     8   ar
    28     8     9   ar
    29     9    10    1
    30     9    11   ar
    31    11    12   ar
    32    12    13   ar
    33    13     2    1
    34    36    30   ar
    35    19    14    1
    36    13     7   ar
    37    25    20   ar
    38    24    26    1
    39    24    27    1
    40    25    28    1
@<TRIPOS>MOLECULE
*****
 36 40 0 0 0
SMALL
GASTEIGER

@<TRIPOS>ATOM
      1 C         143.5517  139.7609  157.0456 C.3     1  UNL1        0.1122
      2 N         143.2925  140.5611  158.2875 N.pl3   1  UNL1       -0.3046
      3 C         143.4549  139.8228  159.5831 C.3     1  UNL1        0.1070
      4 C         143.2700  140.3350  160.9808 C.3     1  UNL1        0.0819
      5 N         142.8771  141.7118  161.4282 N.3     1  UNL1       -0.2695
      6 C         142.5720  142.9164  160.5882 C.3     1  UNL1        0.1004
      7 C         142.5845  143.0420  159.0934 C.ar    1  UNL1        0.0080
      8 C         142.2165  144.4291  158.6569 C.ar    1  UNL1        0.0097
      9 C         142.1692  144.7679  157.1965 C.ar    1  UNL1        0.0575
     10 CL        141.8012  146.1550  156.7599 Cl      1  UNL1       -0.0823
     11 C         142.4898  143.7196  156.1726 C.ar    1  UNL1        0.0126
     12 C         142.8578  142.3326  156.6091 C.ar    1  UNL1        0.0151
     13 C         142.9051  141.9937  158.0696 C.ar    1  UNL1        0.0452
     14 C         142.7759  141.9100  162.9115 C.3     1  UNL1        0.0612
     15 C         141.4292  141.9875  163.5677 C.3     1  UNL1        0.0375
     16 C         141.3281  142.1858  165.0511 C.3     1  UNL1        0.0950
     17 N         142.5735  142.3066  165.8783 N.pl3   1  UNL1       -0.2784
     18 C         143.9202  142.2291  165.2221 C.3     1  UNL1        0.0950
     19 C         144.0213  142.0308  163.7387 C.3     1  UNL1        0.0375
     20 C         142.4723  142.5048  167.3616 C.ar    1  UNL1        0.2194
     21 N         143.6236  142.6283  168.3153 N.ar    1  UNL1       -0.1117
     22 N         143.0649  142.8142  169.6948 N.ar    1  UNL1       -0.1121
     23 C         141.5683  142.8057  169.5939 C.ar    1  UNL1        0.2131
     24 N         140.6068  142.9611  170.7347 N.pl3   1  UNL1       -0.3277
     25 N         141.2021  142.6145  168.1519 N.ar    1  UNL1       -0.2979
     26 H         140.9457  143.0822  171.6511 H       1  UNL1        0.1451
     27 H         139.6369  142.9419  170.5671 H       1  UNL1        0.1451
     28 H         140.2884  142.5689  167.7880 H       1  UNL1        0.1713
     29 C         143.5098  139.3385  162.0761 C.3     1  UNL1        0.0440
     30 C         142.3524  138.7856  162.8536 C.ar    1  UNL1       -0.0207
     31 C         141.0645  138.4642  162.1549 C.ar    1  UNL1       -0.0034
     32 C         139.9071  137.9113  162.9324 C.ar    1  UNL1        0.0111
     33 C         140.0374  137.6798  164.4087 C.ar    1  UNL1        0.0577
     34 CL        138.8798  137.1269  165.1862 Cl      1  UNL1       -0.0822
     35 C         141.3251  138.0013  165.1074 C.ar    1  UNL1        0.0111
     36 C         142.4827  138.5542  164.3299 C.ar    1  UNL1       -0.0034
@<TRIPOS>BOND
     1     1     2    1
     2     2     3    1
     3     3     4    1
     4     4    29    1
     5    29    30    1
     6    30    31   ar
     7    31    32   ar
     8    32    33   ar
     9    33    34    1
    10    33    35   ar
    11    35    36   ar
    12     4     5    1
    13     5    14    1
    14    14    15    1
    15    15    16    1
    16    16    17    1
    17    17    20    1
    18    20    21   ar
    19    21    22   ar
    20    22    23   ar
    21    23    24    1
    22    23    25   ar
    23    17    18    1
    24    18    19    1
    25     5     6    1
    26     6     7    1
    27     7     8   ar
    28     8     9   ar
    29     9    10    1
    30     9    11   ar
    31    11    12   ar
    32    12    13   ar
    33    13     2    1
    34    36    30   ar
    35    19    14    1
    36    13     7   ar
    37    25    20   ar
    38    24    26    1
    39    24    27    1
    40    25    28    1
@<TRIPOS>MOLECULE
*****
 36 40 0 0 0
SMALL
GASTEIGER

@<TRIPOS>ATOM
      1 C         141.0666  142.6773  165.0669 C.3     1  UNL1        0.1122
      2 N         140.8837  141.5644  164.0780 N.pl3   1  UNL1       -0.3046
      3 C         141.5135  141.7786  162.7335 C.3     1  UNL1        0.1070
      4 C         141.5103  140.8656  161.5433 C.3     1  UNL1        0.0819
      5 N         140.8766  139.5132  161.4035 N.3     1  UNL1       -0.2695
      6 C         140.0896  138.7398  162.4196 C.3     1  UNL1        0.1004
      7 C         139.7418  139.1276  163.8262 C.ar    1  UNL1        0.0080
      8 C         138.9359  138.0604  164.5056 C.ar    1  UNL1        0.0097
      9 C         138.4834  138.2503  165.9230 C.ar    1  UNL1        0.0575
     10 CL        137.6774  137.1831  166.6024 Cl      1  UNL1       -0.0823
     11 C         138.8368  139.5074  166.6611 C.ar    1  UNL1        0.0126
     12 C         139.6428  140.5746  165.9817 C.ar    1  UNL1        0.0151
     13 C         140.0953  140.3847  164.5643 C.ar    1  UNL1        0.0452
     14 C         141.0533  138.8462  160.0717 C.3     1  UNL1        0.0612
     15 C         139.9335  138.8560  159.0736 C.3     1  UNL1        0.0375
     16 C         140.1103  138.1889  157.7417 C.3     1  UNL1        0.0950
     17 N         141.4066  137.5121  157.4080 N.pl3   1  UNL1       -0.2784
     18 C         142.5264  137.5023  158.4061 C.3     1  UNL1        0.0950
     19 C         142.3496  138.1694  159.7380 C.3     1  UNL1        0.0375
     20 C         141.5833  136.8451  156.0762 C.ar    1  UNL1        0.2194
     21 N         142.1958  137.4636  154.8546 N.ar    1  UNL1       -0.1117
     22 N         142.1696  136.4432  153.7555 N.ar    1  UNL1       -0.1121
     23 C         141.5408  135.1939  154.2978 C.ar    1  UNL1        0.2131
     24 N         141.3143  133.9200  153.5390 N.pl3   1  UNL1       -0.3277
     25 N         141.1785  135.4423  155.7321 N.ar    1  UNL1       -0.2979
     26 H         141.5881  133.8536  152.5957 H       1  UNL1        0.1451
     27 H         140.8918  133.1503  153.9843 H       1  UNL1        0.1451
     28 H         140.7502  134.7978  156.3407 H       1  UNL1        0.1713
     29 C         142.2369  141.3721  160.3327 C.3     1  UNL1        0.0440
     30 C         141.6939  142.5421  159.5670 C.ar    1  UNL1       -0.0207
     31 C         142.6240  143.6062  159.0641 C.ar    1  UNL1       -0.0034
     32 C         142.0810  144.7761  158.2984 C.ar    1  UNL1        0.0111
     33 C         140.6080  144.8821  158.0356 C.ar    1  UNL1        0.0577
     34 CL        140.0651  146.0522  157.2699 Cl      1  UNL1       -0.0822
     35 C         139.6780  143.8182  158.5385 C.ar    1  UNL1        0.0111
     36 C         140.2209  142.6481  159.3042 C.ar    1  UNL1       -0.0034
@<TRIPOS>BOND
     1     1     2    1
     2     2     3    1
     3     3     4    1
     4     4    29    1
     5    29    30    1
     6    30    31   ar
     7    31    32   ar
     8    32    33   ar
     9    33    34    1
    10    33    35   ar
    11    35    36   ar
    12     4     5    1
    13     5    14    1
    14    14    15    1
    15    15    16    1
    16    16    17    1
    17    17    20    1
    18    20    21   ar
    19    21    22   ar
    20    22    23   ar
    21    23    24    1
    22    23    25   ar
    23    17    18    1
    24    18    19    1
    25     5     6    1
    26     6     7    1
    27     7     8   ar
    28     8     9   ar
    29     9    10    1
    30     9    11   ar
    31    11    12   ar
    32    12    13   ar
    33    13     2    1
    34    36    30   ar
    35    19    14    1
    36    13     7   ar
    37    25    20   ar
    38    24    26    1
    39    24    27    1
    40    25    28    1
