@<TRIPOS>MOLECULE
*****
 45 50 0 0 0
SMALL
GASTEIGER

@<TRIPOS>ATOM
      1 C         140.5864  140.6431  164.8160 C.ar    1  UNL1        0.1255
      2 N         140.1287  141.6169  163.7708 N.ar    1  UNL1       -0.2305
      3 C         141.2844  141.8904  162.8545 C.ar    1  UNL1        0.1013
      4 C         142.4562  141.0857  163.3333 C.ar    1  UNL1        0.1141
      5 C         143.8604  140.9554  162.8221 C.ar    1  UNL1        0.1432
      6 N         144.2918  141.7262  161.6098 N.pl3   1  UNL1       -0.3414
      7 N         144.8331  140.0542  163.5232 N.ar    1  UNL1       -0.2265
      8 C         144.4017  139.2833  164.7355 C.ar    1  UNL1        0.1193
      9 C         142.9976  139.4137  165.2467 C.ar    1  UNL1        0.1020
     10 N         142.0248  140.3149  164.5456 N.ar    1  UNL1       -0.2884
     11 H         143.6533  142.3177  161.1497 H       1  UNL1        0.1438
     12 H         145.2134  141.6407  161.2743 H       1  UNL1        0.1438
     13 C         139.5831  140.2315  169.8977 C.2     1  UNL1        0.2295
     14 O         138.7487  139.6824  171.0168 O.2     1  UNL1       -0.2747
     15 N         139.2503  139.8882  168.4759 N.am    1  UNL1       -0.2790
     16 C         138.0833  138.9958  168.1733 C.3     1  UNL1        0.0934
     17 C         137.7506  138.6525  166.7515 C.3     1  UNL1        0.0220
     18 C         138.5849  139.2016  165.6324 C.3     1  UNL1        0.0110
     19 C         139.7520  140.0940  165.9351 C.3     1  UNL1        0.0771
     20 C         140.0847  140.4373  167.3568 C.3     1  UNL1        0.1008
     21 C         141.6720  139.9427  170.1282 C.3     1  UNL1        0.0142
     22 C         140.7501  141.1238  170.2004 C.3     1  UNL1        0.1234
     23 C         139.8283  142.3050  170.2727 C.3     1  UNL1        0.1531
     24 O         140.9954  143.1973  170.5755 O.3     1  UNL1       -0.3526
     25 C         141.9172  142.0162  170.5032 C.3     1  UNL1        0.1531
     26 C         141.2706  142.8076  161.6676 C.ar    1  UNL1        0.0192
     27 C         141.1244  142.2434  160.2854 C.ar    1  UNL1        0.0017
     28 C         141.1107  143.1606  159.0986 C.ar    1  UNL1        0.0046
     29 C         141.2431  144.6419  159.2939 C.ar    1  UNL1        0.0537
     30 C         141.3893  145.2060  160.6760 C.ar    1  UNL1        0.0046
     31 C         141.4030  144.2888  161.8629 C.ar    1  UNL1        0.0017
     32 C         141.2293  145.5591  158.1070 C.2     1  UNL1        0.2505
     33 O         142.4686  146.3148  157.7288 O.2     1  UNL1       -0.2698
     34 N         139.9763  145.7204  157.2984 N.am    1  UNL1       -0.2658
     35 H         139.1630  145.2243  157.5467 H       1  UNL1        0.1566
     36 C         139.9625  146.6376  156.1116 C.ar    1  UNL1        0.1343
     37 C         139.3181  147.9882  156.2148 C.ar    1  UNL1        0.0383
     38 C         139.3043  148.9053  155.0279 C.ar    1  UNL1        0.0757
     39 C         139.9349  148.4718  153.7377 C.ar    1  UNL1        0.0246
     40 C         140.5792  147.1212  153.6345 C.ar    1  UNL1        0.1003
     41 N         140.5930  146.2041  154.8214 N.ar    1  UNL1       -0.2290
     42 C         138.6599  150.2558  155.1312 C.3     1  UNL1        0.4187
     43 F         138.0155  151.6065  155.2344 F       1  UNL1       -0.1659
     44 F         138.1546  149.9101  156.5005 F       1  UNL1       -0.1659
     45 F         139.1653  150.6017  153.7618 F       1  UNL1       -0.1659
@<TRIPOS>BOND
     1    21    22    1
     2    22    13    1
     3    13    14    2
     4    13    15   am
     5    15    16    1
     6    16    17    1
     7    17    18    1
     8    18    19    1
     9    19     1    1
    10     1     2   ar
    11     2     3   ar
    12     3    26    1
    13    26    27   ar
    14    27    28   ar
    15    28    29   ar
    16    29    32    1
    17    32    33    2
    18    32    34   am
    19    34    36    1
    20    36    37   ar
    21    37    38   ar
    22    38    42    1
    23    42    43    1
    24    42    44    1
    25    42    45    1
    26    38    39   ar
    27    39    40   ar
    28    40    41   ar
    29    29    30   ar
    30    30    31   ar
    31     3     4   ar
    32     4     5   ar
    33     5     6    1
    34     5     7   ar
    35     7     8   ar
    36     8     9   ar
    37     9    10   ar
    38    19    20    1
    39    22    23    1
    40    23    24    1
    41    24    25    1
    42    25    22    1
    43    20    15    1
    44    10     1   ar
    45    31    26   ar
    46    10     4   ar
    47    41    36   ar
    48    34    35    1
    49     6    11    1
    50     6    12    1
@<TRIPOS>MOLECULE
*****
 45 50 0 0 0
SMALL
GASTEIGER

@<TRIPOS>ATOM
      1 C         139.6587  141.1559  164.3740 C.ar    1  UNL1        0.1255
      2 N         140.7061  140.6669  163.4181 N.ar    1  UNL1       -0.2305
      3 C         140.7975  141.6493  162.2883 C.ar    1  UNL1        0.1013
      4 C         139.8065  142.7455  162.5459 C.ar    1  UNL1        0.1141
      5 C         139.4541  143.9819  161.7733 C.ar    1  UNL1        0.1432
      6 N         140.1579  144.2868  160.4842 N.pl3   1  UNL1       -0.3414
      7 N         138.3979  144.9134  162.2896 N.ar    1  UNL1       -0.2265
      8 C         137.6940  144.6084  163.5787 C.ar    1  UNL1        0.1193
      9 C         138.0464  143.3720  164.3513 C.ar    1  UNL1        0.1020
     10 N         139.1027  142.4405  163.8349 N.ar    1  UNL1       -0.2884
     11 H         140.8512  143.6755  160.1453 H       1  UNL1        0.1438
     12 H         139.9266  145.0984  159.9771 H       1  UNL1        0.1438
     13 C         140.0727  140.6033  169.5240 C.2     1  UNL1        0.2295
     14 O         139.6546  139.9265  170.7957 O.2     1  UNL1       -0.2747
     15 N         139.4476  140.2028  168.2207 N.am    1  UNL1       -0.2790
     16 C         138.4043  139.1254  168.1890 C.3     1  UNL1        0.0934
     17 C         137.7792  138.7249  166.8856 C.3     1  UNL1        0.0220
     18 C         138.1973  139.4017  165.6140 C.3     1  UNL1        0.0110
     19 C         139.2406  140.4791  165.6457 C.3     1  UNL1        0.0771
     20 C         139.8656  140.8796  166.9490 C.3     1  UNL1        0.1008
     21 C         142.1491  140.6937  169.0991 C.3     1  UNL1        0.0142
     22 C         141.1159  141.6806  169.5558 C.3     1  UNL1        0.1234
     23 C         140.0828  142.6677  170.0125 C.3     1  UNL1        0.1531
     24 O         141.1261  143.7449  170.0442 O.3     1  UNL1       -0.3526
     25 C         142.1592  142.7580  169.5876 C.3     1  UNL1        0.1531
     26 C         141.7181  141.5525  161.1081 C.ar    1  UNL1        0.0192
     27 C         143.0721  142.1963  161.1583 C.ar    1  UNL1        0.0017
     28 C         143.9928  142.0996  159.9780 C.ar    1  UNL1        0.0046
     29 C         143.5596  141.3591  158.7476 C.ar    1  UNL1        0.0537
     30 C         142.2057  140.7154  158.6974 C.ar    1  UNL1        0.0046
     31 C         141.2850  140.8121  159.8776 C.ar    1  UNL1        0.0017
     32 C         144.4803  141.2624  157.5673 C.2     1  UNL1        0.2505
     33 O         144.9229  139.9184  157.0696 O.2     1  UNL1       -0.2698
     34 N         144.9583  142.5097  156.8849 N.am    1  UNL1       -0.2658
     35 H         144.6678  143.3917  157.2117 H       1  UNL1        0.1566
     36 C         145.8791  142.4130  155.7047 C.ar    1  UNL1        0.1343
     37 C         147.3450  142.1741  155.9144 C.ar    1  UNL1        0.0383
     38 C         148.2656  142.0775  154.7341 C.ar    1  UNL1        0.0757
     39 C         147.7203  142.2197  153.3440 C.ar    1  UNL1        0.0246
     40 C         146.2544  142.4586  153.1342 C.ar    1  UNL1        0.1003
     41 N         145.3338  142.5553  154.3145 N.ar    1  UNL1       -0.2290
     42 C         149.7314  141.8386  154.9440 C.3     1  UNL1        0.4187
     43 F         151.1974  141.5997  155.1540 F       1  UNL1       -0.1659
     44 F         149.8976  141.5692  153.4778 F       1  UNL1       -0.1659
     45 F         149.5654  142.1079  156.4103 F       1  UNL1       -0.1659
@<TRIPOS>BOND
     1    21    22    1
     2    22    13    1
     3    13    14    2
     4    13    15   am
     5    15    16    1
     6    16    17    1
     7    17    18    1
     8    18    19    1
     9    19     1    1
    10     1     2   ar
    11     2     3   ar
    12     3    26    1
    13    26    27   ar
    14    27    28   ar
    15    28    29   ar
    16    29    32    1
    17    32    33    2
    18    32    34   am
    19    34    36    1
    20    36    37   ar
    21    37    38   ar
    22    38    42    1
    23    42    43    1
    24    42    44    1
    25    42    45    1
    26    38    39   ar
    27    39    40   ar
    28    40    41   ar
    29    29    30   ar
    30    30    31   ar
    31     3     4   ar
    32     4     5   ar
    33     5     6    1
    34     5     7   ar
    35     7     8   ar
    36     8     9   ar
    37     9    10   ar
    38    19    20    1
    39    22    23    1
    40    23    24    1
    41    24    25    1
    42    25    22    1
    43    20    15    1
    44    10     1   ar
    45    31    26   ar
    46    10     4   ar
    47    41    36   ar
    48    34    35    1
    49     6    11    1
    50     6    12    1
@<TRIPOS>MOLECULE
*****
 45 50 0 0 0
SMALL
GASTEIGER

@<TRIPOS>ATOM
      1 C         141.3646  140.2944  165.1885 C.ar    1  UNL1        0.1255
      2 N         141.1317  139.4452  163.9742 N.ar    1  UNL1       -0.2305
      3 C         142.0958  139.8821  162.9113 C.ar    1  UNL1        0.1013
      4 C         142.9245  141.0012  163.4688 C.ar    1  UNL1        0.1141
      5 C         144.0322  141.8212  162.8767 C.ar    1  UNL1        0.1432
      6 N         144.4842  141.5664  161.4693 N.pl3   1  UNL1       -0.3414
      7 N         144.6880  142.8960  163.6920 N.ar    1  UNL1       -0.2265
      8 C         144.2360  143.1508  165.0995 C.ar    1  UNL1        0.1193
      9 C         143.1283  142.3308  165.6915 C.ar    1  UNL1        0.1020
     10 N         142.4726  141.2561  164.8762 N.ar    1  UNL1       -0.2884
     11 H         144.0538  140.8610  160.9342 H       1  UNL1        0.1438
     12 H         145.2112  142.1046  161.0807 H       1  UNL1        0.1438
     13 C         141.1843  140.9937  170.3342 C.2     1  UNL1        0.2295
     14 O         140.4398  140.8980  171.6329 O.2     1  UNL1       -0.2747
     15 N         140.5299  140.5483  169.0601 N.am    1  UNL1       -0.2790
     16 C         139.1311  140.0073  169.0846 C.3     1  UNL1        0.0934
     17 C         138.4768  139.5620  167.8105 C.3     1  UNL1        0.0220
     18 C         139.2212  139.6577  166.5118 C.3     1  UNL1        0.0110
     19 C         140.6201  140.1987  166.4872 C.3     1  UNL1        0.0771
     20 C         141.2744  140.6440  167.7614 C.3     1  UNL1        0.1008
     21 C         143.1247  140.1381  170.3896 C.3     1  UNL1        0.0142
     22 C         142.5831  141.5347  170.3098 C.3     1  UNL1        0.1234
     23 C         142.0416  142.9312  170.2299 C.3     1  UNL1        0.1531
     24 O         143.4405  143.4722  170.2055 O.3     1  UNL1       -0.3526
     25 C         143.9820  142.0757  170.2853 C.3     1  UNL1        0.1531
     26 C         142.2110  139.3017  161.5330 C.ar    1  UNL1        0.0192
     27 C         142.9736  138.0281  161.3167 C.ar    1  UNL1        0.0017
     28 C         143.0888  137.4478  159.9384 C.ar    1  UNL1        0.0046
     29 C         142.4415  138.1409  158.7762 C.ar    1  UNL1        0.0537
     30 C         141.6790  139.4144  158.9924 C.ar    1  UNL1        0.0046
     31 C         141.5638  139.9948  160.3708 C.ar    1  UNL1        0.0017
     32 C         142.5567  137.5605  157.3978 C.2     1  UNL1        0.2505
     33 O         143.7400  137.8962  156.5392 O.2     1  UNL1       -0.2698
     34 N         141.4887  136.6445  156.8782 N.am    1  UNL1       -0.2658
     35 H         140.7121  136.4242  157.4418 H       1  UNL1        0.1566
     36 C         141.6038  136.0640  155.4998 C.ar    1  UNL1        0.1343
     37 C         142.1096  134.6640  155.3153 C.ar    1  UNL1        0.0383
     38 C         142.2247  134.0836  153.9369 C.ar    1  UNL1        0.0757
     39 C         141.8341  134.9034  152.7430 C.ar    1  UNL1        0.0246
     40 C         141.3283  136.3034  152.9275 C.ar    1  UNL1        0.1003
     41 N         141.2132  136.8837  154.3059 N.ar    1  UNL1       -0.2290
     42 C         142.7305  132.6836  153.7526 C.3     1  UNL1        0.4187
     43 F         143.2362  131.2834  153.5681 F       1  UNL1       -0.1659
     44 F         143.4212  132.7579  155.0820 F       1  UNL1       -0.1659
     45 F         142.0397  132.6092  152.4231 F       1  UNL1       -0.1659
@<TRIPOS>BOND
     1    21    22    1
     2    22    13    1
     3    13    14    2
     4    13    15   am
     5    15    16    1
     6    16    17    1
     7    17    18    1
     8    18    19    1
     9    19     1    1
    10     1     2   ar
    11     2     3   ar
    12     3    26    1
    13    26    27   ar
    14    27    28   ar
    15    28    29   ar
    16    29    32    1
    17    32    33    2
    18    32    34   am
    19    34    36    1
    20    36    37   ar
    21    37    38   ar
    22    38    42    1
    23    42    43    1
    24    42    44    1
    25    42    45    1
    26    38    39   ar
    27    39    40   ar
    28    40    41   ar
    29    29    30   ar
    30    30    31   ar
    31     3     4   ar
    32     4     5   ar
    33     5     6    1
    34     5     7   ar
    35     7     8   ar
    36     8     9   ar
    37     9    10   ar
    38    19    20    1
    39    22    23    1
    40    23    24    1
    41    24    25    1
    42    25    22    1
    43    20    15    1
    44    10     1   ar
    45    31    26   ar
    46    10     4   ar
    47    41    36   ar
    48    34    35    1
    49     6    11    1
    50     6    12    1
@<TRIPOS>MOLECULE
*****
 45 50 0 0 0
SMALL
GASTEIGER

@<TRIPOS>ATOM
      1 C         139.5158  138.4940  156.8241 C.ar    1  UNL1        0.1255
      2 N         139.8518  138.1205  158.2374 N.ar    1  UNL1       -0.2305
      3 C         139.4605  139.2648  159.1248 C.ar    1  UNL1        0.1013
      4 C         138.8826  140.3455  158.2599 C.ar    1  UNL1        0.1141
      5 C         138.3296  141.7018  158.5833 C.ar    1  UNL1        0.1432
      6 N         138.2954  142.1782  160.0053 N.pl3   1  UNL1       -0.3414
      7 N         137.8109  142.5817  157.4849 N.ar    1  UNL1       -0.2265
      8 C         137.8451  142.1054  156.0630 C.ar    1  UNL1        0.1193
      9 C         138.3981  140.7491  155.7395 C.ar    1  UNL1        0.1020
     10 N         138.9168  139.8692  156.8379 N.ar    1  UNL1       -0.2884
     11 H         138.6359  141.6007  160.7262 H       1  UNL1        0.1438
     12 H         137.9325  143.0684  160.2176 H       1  UNL1        0.1438
     13 C         142.0714  134.6559  154.4287 C.2     1  UNL1        0.2295
     14 O         142.2951  133.8039  153.2146 O.2     1  UNL1       -0.2747
     15 N         141.0173  135.7230  154.4123 N.am    1  UNL1       -0.2790
     16 C         140.1869  135.9380  153.1817 C.3     1  UNL1        0.0934
     17 C         139.1328  137.0050  153.1653 C.3     1  UNL1        0.0220
     18 C         138.9091  137.8570  154.3794 C.3     1  UNL1        0.0110
     19 C         139.7395  137.6420  155.6100 C.3     1  UNL1        0.0771
     20 C         140.7936  136.5750  155.6264 C.3     1  UNL1        0.1008
     21 C         143.7744  135.5982  155.2726 C.3     1  UNL1        0.0142
     22 C         142.9018  134.4409  155.6592 C.3     1  UNL1        0.1234
     23 C         142.0294  133.2836  156.0458 C.3     1  UNL1        0.1531
     24 O         142.8599  133.0686  157.2763 O.3     1  UNL1       -0.3526
     25 C         143.7324  134.2258  156.8897 C.3     1  UNL1        0.1531
     26 C         139.6191  139.3189  160.6154 C.ar    1  UNL1        0.0192
     27 C         140.8777  139.8716  161.2161 C.ar    1  UNL1        0.0017
     28 C         141.0363  139.9257  162.7067 C.ar    1  UNL1        0.0046
     29 C         139.9365  139.4272  163.5966 C.ar    1  UNL1        0.0537
     30 C         138.6780  138.8746  162.9959 C.ar    1  UNL1        0.0046
     31 C         138.5194  138.8205  161.5053 C.ar    1  UNL1        0.0017
     32 C         140.0952  139.4813  165.0872 C.2     1  UNL1        0.2505
     33 O         139.1820  138.6814  165.9682 O.2     1  UNL1       -0.2698
     34 N         141.1670  140.3354  165.6968 N.am    1  UNL1       -0.2658
     35 H         141.7664  140.8605  165.1185 H       1  UNL1        0.1566
     36 C         141.3257  140.3896  167.1874 C.ar    1  UNL1        0.1343
     37 C         140.5385  141.3827  167.9900 C.ar    1  UNL1        0.0383
     38 C         140.6973  141.4368  169.4806 C.ar    1  UNL1        0.0757
     39 C         141.6433  140.4978  170.1686 C.ar    1  UNL1        0.0246
     40 C         142.4306  139.5048  169.3661 C.ar    1  UNL1        0.1003
     41 N         142.2718  139.4507  167.8755 N.ar    1  UNL1       -0.2290
     42 C         139.9100  142.4298  170.2830 C.3     1  UNL1        0.4187
     43 F         139.1227  143.4229  171.0855 F       1  UNL1       -0.1659
     44 F         141.0752  143.3741  170.2577 F       1  UNL1       -0.1659
     45 F         138.7447  141.4856  170.3083 F       1  UNL1       -0.1659
@<TRIPOS>BOND
     1    21    22    1
     2    22    13    1
     3    13    14    2
     4    13    15   am
     5    15    16    1
     6    16    17    1
     7    17    18    1
     8    18    19    1
     9    19     1    1
    10     1     2   ar
    11     2     3   ar
    12     3    26    1
    13    26    27   ar
    14    27    28   ar
    15    28    29   ar
    16    29    32    1
    17    32    33    2
    18    32    34   am
    19    34    36    1
    20    36    37   ar
    21    37    38   ar
    22    38    42    1
    23    42    43    1
    24    42    44    1
    25    42    45    1
    26    38    39   ar
    27    39    40   ar
    28    40    41   ar
    29    29    30   ar
    30    30    31   ar
    31     3     4   ar
    32     4     5   ar
    33     5     6    1
    34     5     7   ar
    35     7     8   ar
    36     8     9   ar
    37     9    10   ar
    38    19    20    1
    39    22    23    1
    40    23    24    1
    41    24    25    1
    42    25    22    1
    43    20    15    1
    44    10     1   ar
    45    31    26   ar
    46    10     4   ar
    47    41    36   ar
    48    34    35    1
    49     6    11    1
    50     6    12    1
@<TRIPOS>MOLECULE
*****
 45 50 0 0 0
SMALL
GASTEIGER

@<TRIPOS>ATOM
      1 C         142.7280  138.0178  157.5901 C.ar    1  UNL1        0.1255
      2 N         142.4814  137.9748  159.0691 N.ar    1  UNL1       -0.2305
      3 C         143.0052  139.2485  159.6635 C.ar    1  UNL1        0.1013
      4 C         143.5755  140.0787  158.5519 C.ar    1  UNL1        0.1141
      5 C         144.2287  141.4289  158.5410 C.ar    1  UNL1        0.1432
      6 N         144.4000  142.1895  159.8225 N.pl3   1  UNL1       -0.3414
      7 N         144.7105  142.0185  157.2487 N.ar    1  UNL1       -0.2265
      8 C         144.5392  141.2579  155.9673 C.ar    1  UNL1        0.1193
      9 C         143.8860  139.9076  155.9782 C.ar    1  UNL1        0.1020
     10 N         143.4042  139.3180  157.2705 N.ar    1  UNL1       -0.2884
     11 H         144.0838  141.8025  160.6707 H       1  UNL1        0.1438
     12 H         144.8287  143.0758  159.8153 H       1  UNL1        0.1438
     13 C         140.0075  136.4556  153.4479 C.2     1  UNL1        0.2295
     14 O         139.6420  135.3861  152.4616 O.2     1  UNL1       -0.2747
     15 N         141.0023  136.1672  154.5328 N.am    1  UNL1       -0.2790
     16 C         141.6318  134.8092  154.6314 C.3     1  UNL1        0.0934
     17 C         142.6266  134.5208  155.7164 C.3     1  UNL1        0.0220
     18 C         142.9920  135.5903  156.7026 C.3     1  UNL1        0.0110
     19 C         142.3626  136.9483  156.6039 C.3     1  UNL1        0.0771
     20 C         141.3678  137.2367  155.5190 C.3     1  UNL1        0.1008
     21 C         140.4191  138.2235  152.3501 C.3     1  UNL1        0.0142
     22 C         139.3780  137.8135  153.3491 C.3     1  UNL1        0.1234
     23 C         138.3369  137.4037  154.3481 C.3     1  UNL1        0.1531
     24 O         137.7075  138.7616  154.2493 O.3     1  UNL1       -0.3526
     25 C         138.7485  139.1716  153.2503 C.3     1  UNL1        0.1531
     26 C         142.9657  139.6258  161.1147 C.ar    1  UNL1        0.0192
     27 C         144.0724  139.1964  162.0318 C.ar    1  UNL1        0.0017
     28 C         144.0328  139.5738  163.4830 C.ar    1  UNL1        0.0046
     29 C         142.8866  140.3805  164.0172 C.ar    1  UNL1        0.0537
     30 C         141.7800  140.8098  163.1002 C.ar    1  UNL1        0.0046
     31 C         141.8195  140.4325  161.6490 C.ar    1  UNL1        0.0017
     32 C         142.8471  140.7578  165.4685 C.2     1  UNL1        0.2505
     33 O         143.5853  141.9723  165.9480 O.2     1  UNL1       -0.2698
     34 N         142.0693  139.9205  166.4401 N.am    1  UNL1       -0.2658
     35 H         141.5849  139.1234  166.1253 H       1  UNL1        0.1566
     36 C         142.0297  140.2978  167.8913 C.ar    1  UNL1        0.1343
     37 C         141.2271  141.4843  168.3363 C.ar    1  UNL1        0.0383
     38 C         141.1876  141.8615  169.7875 C.ar    1  UNL1        0.0757
     39 C         141.9506  141.0522  170.7939 C.ar    1  UNL1        0.0246
     40 C         142.7532  139.8657  170.3490 C.ar    1  UNL1        0.1003
     41 N         142.7928  139.4885  168.8977 N.ar    1  UNL1       -0.2290
     42 C         140.3850  143.0481  170.2324 C.3     1  UNL1        0.4187
     43 F         139.5824  144.2347  170.6772 F       1  UNL1       -0.1659
     44 F         139.1788  142.1713  170.3950 F       1  UNL1       -0.1659
     45 F         141.5912  143.9249  170.0698 F       1  UNL1       -0.1659
@<TRIPOS>BOND
     1    21    22    1
     2    22    13    1
     3    13    14    2
     4    13    15   am
     5    15    16    1
     6    16    17    1
     7    17    18    1
     8    18    19    1
     9    19     1    1
    10     1     2   ar
    11     2     3   ar
    12     3    26    1
    13    26    27   ar
    14    27    28   ar
    15    28    29   ar
    16    29    32    1
    17    32    33    2
    18    32    34   am
    19    34    36    1
    20    36    37   ar
    21    37    38   ar
    22    38    42    1
    23    42    43    1
    24    42    44    1
    25    42    45    1
    26    38    39   ar
    27    39    40   ar
    28    40    41   ar
    29    29    30   ar
    30    30    31   ar
    31     3     4   ar
    32     4     5   ar
    33     5     6    1
    34     5     7   ar
    35     7     8   ar
    36     8     9   ar
    37     9    10   ar
    38    19    20    1
    39    22    23    1
    40    23    24    1
    41    24    25    1
    42    25    22    1
    43    20    15    1
    44    10     1   ar
    45    31    26   ar
    46    10     4   ar
    47    41    36   ar
    48    34    35    1
    49     6    11    1
    50     6    12    1
@<TRIPOS>MOLECULE
*****
 45 50 0 0 0
SMALL
GASTEIGER

@<TRIPOS>ATOM
      1 C         142.7358  136.3504  156.4806 C.ar    1  UNL1        0.1255
      2 N         142.5245  136.2512  157.9623 N.ar    1  UNL1       -0.2305
      3 C         142.7305  137.6149  158.5521 C.ar    1  UNL1        0.1013
      4 C         143.0690  138.5569  157.4350 C.ar    1  UNL1        0.1141
      5 C         143.3747  140.0253  157.4181 C.ar    1  UNL1        0.1432
      6 N         143.3715  140.8068  158.6985 N.pl3   1  UNL1       -0.3414
      7 N         143.6837  140.7122  156.1210 N.ar    1  UNL1       -0.2265
      8 C         143.6870  139.9307  154.8407 C.ar    1  UNL1        0.1193
      9 C         143.3813  138.4623  154.8575 C.ar    1  UNL1        0.1020
     10 N         143.0723  137.7754  156.1546 N.ar    1  UNL1       -0.2884
     11 H         143.1687  140.3560  159.5499 H       1  UNL1        0.1438
     12 H         143.5721  141.7706  158.6874 H       1  UNL1        0.1438
     13 C         143.4914  131.3560  155.2621 C.2     1  UNL1        0.2295
     14 O         143.3849  130.2282  154.2789 O.2     1  UNL1       -0.2747
     15 N         143.0070  132.7255  154.8880 N.am    1  UNL1       -0.2790
     16 C         142.4161  132.9671  153.5307 C.3     1  UNL1        0.0934
     17 C         141.9317  134.3366  153.1566 C.3     1  UNL1        0.0220
     18 C         142.0383  135.4644  154.1399 C.3     1  UNL1        0.0110
     19 C         142.6292  135.2227  155.4973 C.3     1  UNL1        0.0771
     20 C         143.1136  133.8532  155.8713 C.3     1  UNL1        0.1008
     21 C         145.2405  132.0026  156.2734 C.3     1  UNL1        0.0142
     22 C         144.0823  131.1142  156.6194 C.3     1  UNL1        0.1234
     23 C         142.9243  130.2259  156.9654 C.3     1  UNL1        0.1531
     24 O         143.5153  129.9841  158.3227 O.3     1  UNL1       -0.3526
     25 C         144.6734  130.8725  157.9768 C.3     1  UNL1        0.1531
     26 C         142.6177  137.9736  160.0042 C.ar    1  UNL1        0.0192
     27 C         143.8407  137.9782  160.8729 C.ar    1  UNL1        0.0017
     28 C         143.7279  138.3369  162.3250 C.ar    1  UNL1        0.0046
     29 C         142.3922  138.6911  162.9085 C.ar    1  UNL1        0.0537
     30 C         141.1693  138.6866  162.0399 C.ar    1  UNL1        0.0046
     31 C         141.2821  138.3278  160.5878 C.ar    1  UNL1        0.0017
     32 C         142.2794  139.0499  164.3606 C.2     1  UNL1        0.2505
     33 O         142.5124  138.0052  165.4115 O.2     1  UNL1       -0.2698
     34 N         141.9337  140.4533  164.7617 N.am    1  UNL1       -0.2658
     35 H         141.7808  141.1389  164.0719 H       1  UNL1        0.1566
     36 C         141.8209  140.8121  166.2138 C.ar    1  UNL1        0.1343
     37 C         140.6017  140.4149  166.9921 C.ar    1  UNL1        0.0383
     38 C         140.4890  140.7737  168.4441 C.ar    1  UNL1        0.0757
     39 C         141.5955  141.5299  169.1179 C.ar    1  UNL1        0.0246
     40 C         142.8147  141.9271  168.3396 C.ar    1  UNL1        0.1003
     41 N         142.9274  141.5683  166.8875 N.ar    1  UNL1       -0.2290
     42 C         139.2698  140.3764  169.2223 C.3     1  UNL1        0.4187
     43 F         138.0505  139.9791  170.0006 F       1  UNL1       -0.1659
     44 F         139.7526  141.1835  170.3909 F       1  UNL1       -0.1659
     45 F         138.7870  139.5693  168.0538 F       1  UNL1       -0.1659
@<TRIPOS>BOND
     1    21    22    1
     2    22    13    1
     3    13    14    2
     4    13    15   am
     5    15    16    1
     6    16    17    1
     7    17    18    1
     8    18    19    1
     9    19     1    1
    10     1     2   ar
    11     2     3   ar
    12     3    26    1
    13    26    27   ar
    14    27    28   ar
    15    28    29   ar
    16    29    32    1
    17    32    33    2
    18    32    34   am
    19    34    36    1
    20    36    37   ar
    21    37    38   ar
    22    38    42    1
    23    42    43    1
    24    42    44    1
    25    42    45    1
    26    38    39   ar
    27    39    40   ar
    28    40    41   ar
    29    29    30   ar
    30    30    31   ar
    31     3     4   ar
    32     4     5   ar
    33     5     6    1
    34     5     7   ar
    35     7     8   ar
    36     8     9   ar
    37     9    10   ar
    38    19    20    1
    39    22    23    1
    40    23    24    1
    41    24    25    1
    42    25    22    1
    43    20    15    1
    44    10     1   ar
    45    31    26   ar
    46    10     4   ar
    47    41    36   ar
    48    34    35    1
    49     6    11    1
    50     6    12    1
@<TRIPOS>MOLECULE
*****
 45 50 0 0 0
SMALL
GASTEIGER

@<TRIPOS>ATOM
      1 C         142.2192  139.8975  158.8583 C.ar    1  UNL1        0.1255
      2 N         141.6463  138.5518  158.5257 N.ar    1  UNL1       -0.2305
      3 C         142.4503  137.9710  157.4005 C.ar    1  UNL1        0.1013
      4 C         143.5202  138.9577  157.0377 C.ar    1  UNL1        0.1141
      5 C         144.6060  138.9259  156.0033 C.ar    1  UNL1        0.1432
      6 N         144.7489  137.7351  155.1023 N.pl3   1  UNL1       -0.3414
      7 N         145.5490  140.0847  155.8699 N.ar    1  UNL1       -0.2265
      8 C         145.4062  141.2754  156.7709 C.ar    1  UNL1        0.1193
      9 C         144.3204  141.3073  157.8053 C.ar    1  UNL1        0.1020
     10 N         143.3774  140.1484  157.9387 N.ar    1  UNL1       -0.2884
     11 H         144.1299  136.9745  155.1899 H       1  UNL1        0.1438
     12 H         145.4615  137.7142  154.4234 H       1  UNL1        0.1438
     13 C         142.7918  142.1181  163.5211 C.2     1  UNL1        0.2295
     14 O         142.2940  143.0495  164.5863 O.2     1  UNL1       -0.2747
     15 N         142.0077  141.9392  162.2549 N.am    1  UNL1       -0.2790
     16 C         140.7258  142.6918  162.0540 C.3     1  UNL1        0.0934
     17 C         139.9417  142.5129  160.7878 C.3     1  UNL1        0.0220
     18 C         140.4395  141.5815  159.7226 C.3     1  UNL1        0.0110
     19 C         141.7214  140.8289  159.9235 C.3     1  UNL1        0.0771
     20 C         142.5055  141.0078  161.1897 C.3     1  UNL1        0.1008
     21 C         143.3221  140.2724  164.4224 C.3     1  UNL1        0.0142
     22 C         144.0736  141.3656  163.7221 C.3     1  UNL1        0.1234
     23 C         144.8252  142.4586  163.0218 C.3     1  UNL1        0.1531
     24 O         146.1071  141.7060  163.2229 O.3     1  UNL1       -0.3526
     25 C         145.3556  140.6129  163.9231 C.3     1  UNL1        0.1531
     26 C         142.2242  136.6374  156.7519 C.ar    1  UNL1        0.0192
     27 C         141.1720  136.4870  155.6935 C.ar    1  UNL1        0.0017
     28 C         140.9459  135.1535  155.0449 C.ar    1  UNL1        0.0046
     29 C         141.7720  133.9704  155.4547 C.ar    1  UNL1        0.0537
     30 C         142.8242  134.1209  156.5131 C.ar    1  UNL1        0.0046
     31 C         143.0503  135.4544  157.1617 C.ar    1  UNL1        0.0017
     32 C         141.5459  132.6369  154.8062 C.2     1  UNL1        0.2505
     33 O         140.9728  132.5637  153.4219 O.2     1  UNL1       -0.2698
     34 N         141.8929  131.3767  155.5419 N.am    1  UNL1       -0.2658
     35 H         142.2690  131.4248  156.4505 H       1  UNL1        0.1566
     36 C         141.6668  130.0431  154.8934 C.ar    1  UNL1        0.1343
     37 C         140.3877  129.2982  155.1362 C.ar    1  UNL1        0.0383
     38 C         140.1617  127.9646  154.4877 C.ar    1  UNL1        0.0757
     39 C         141.2148  127.3760  153.5964 C.ar    1  UNL1        0.0246
     40 C         142.4939  128.1209  153.3536 C.ar    1  UNL1        0.1003
     41 N         142.7199  129.4545  154.0021 N.ar    1  UNL1       -0.2290
     42 C         138.8826  127.2198  154.7305 C.3     1  UNL1        0.4187
     43 F         137.6034  126.4748  154.9733 F       1  UNL1       -0.1659
     44 F         138.7929  127.8207  156.1019 F       1  UNL1       -0.1659
     45 F         138.9722  126.6188  153.3590 F       1  UNL1       -0.1659
@<TRIPOS>BOND
     1    21    22    1
     2    22    13    1
     3    13    14    2
     4    13    15   am
     5    15    16    1
     6    16    17    1
     7    17    18    1
     8    18    19    1
     9    19     1    1
    10     1     2   ar
    11     2     3   ar
    12     3    26    1
    13    26    27   ar
    14    27    28   ar
    15    28    29   ar
    16    29    32    1
    17    32    33    2
    18    32    34   am
    19    34    36    1
    20    36    37   ar
    21    37    38   ar
    22    38    42    1
    23    42    43    1
    24    42    44    1
    25    42    45    1
    26    38    39   ar
    27    39    40   ar
    28    40    41   ar
    29    29    30   ar
    30    30    31   ar
    31     3     4   ar
    32     4     5   ar
    33     5     6    1
    34     5     7   ar
    35     7     8   ar
    36     8     9   ar
    37     9    10   ar
    38    19    20    1
    39    22    23    1
    40    23    24    1
    41    24    25    1
    42    25    22    1
    43    20    15    1
    44    10     1   ar
    45    31    26   ar
    46    10     4   ar
    47    41    36   ar
    48    34    35    1
    49     6    11    1
    50     6    12    1
@<TRIPOS>MOLECULE
*****
 45 50 0 0 0
SMALL
GASTEIGER

@<TRIPOS>ATOM
      1 C         140.3754  142.7893  161.8111 C.ar    1  UNL1        0.1255
      2 N         140.7451  141.3941  161.4029 N.ar    1  UNL1       -0.2305
      3 C         141.0289  141.4019  159.9300 C.ar    1  UNL1        0.1013
      4 C         140.8345  142.8020  159.4279 C.ar    1  UNL1        0.1141
      5 C         140.9731  143.4068  158.0623 C.ar    1  UNL1        0.1432
      6 N         141.3770  142.5493  156.8997 N.pl3   1  UNL1       -0.3414
      7 N         140.7079  144.8691  157.8593 N.ar    1  UNL1       -0.2265
      8 C         140.3040  145.7266  159.0219 C.ar    1  UNL1        0.1193
      9 C         140.1654  145.1218  160.3875 C.ar    1  UNL1        0.1020
     10 N         140.4307  143.6595  160.5905 N.ar    1  UNL1       -0.2884
     11 H         141.5511  141.5896  157.0330 H       1  UNL1        0.1438
     12 H         141.4680  142.9463  156.0034 H       1  UNL1        0.1438
     13 C         140.9225  142.3687  166.9612 C.2     1  UNL1        0.2295
     14 O         140.5610  142.8155  168.3468 O.2     1  UNL1       -0.2747
     15 N         140.2874  143.0258  165.7717 N.am    1  UNL1       -0.2790
     16 C         139.2909  144.1296  165.9678 C.3     1  UNL1        0.0934
     17 C         138.6558  144.7867  164.7783 C.3     1  UNL1        0.0220
     18 C         139.0173  144.3399  163.3927 C.3     1  UNL1        0.0110
     19 C         140.0139  143.2361  163.1967 C.3     1  UNL1        0.0771
     20 C         140.6489  142.5791  164.3862 C.3     1  UNL1        0.1008
     21 C         143.0342  142.2680  166.7860 C.3     1  UNL1        0.0142
     22 C         141.9191  141.2649  166.7653 C.3     1  UNL1        0.1234
     23 C         140.8041  140.2618  166.7445 C.3     1  UNL1        0.1531
     24 O         141.8007  139.1581  166.5485 O.3     1  UNL1       -0.3526
     25 C         142.9158  140.1611  166.5693 C.3     1  UNL1        0.1531
     26 C         141.4356  140.2176  159.1042 C.ar    1  UNL1        0.0192
     27 C         140.3909  139.2908  158.5566 C.ar    1  UNL1        0.0017
     28 C         140.7976  138.1065  157.7307 C.ar    1  UNL1        0.0046
     29 C         142.2489  137.8490  157.4524 C.ar    1  UNL1        0.0537
     30 C         143.2934  138.7758  158.0000 C.ar    1  UNL1        0.0046
     31 C         142.8868  139.9601  158.8259 C.ar    1  UNL1        0.0017
     32 C         142.6555  136.6647  156.6266 C.2     1  UNL1        0.2505
     33 O         144.0441  136.5831  156.0651 O.2     1  UNL1       -0.2698
     34 N         141.6737  135.5620  156.3623 N.am    1  UNL1       -0.2658
     35 H         140.7623  135.6155  156.7309 H       1  UNL1        0.1566
     36 C         142.0803  134.3776  155.5364 C.ar    1  UNL1        0.1343
     37 C         142.8039  133.2300  156.1761 C.ar    1  UNL1        0.0383
     38 C         143.2105  132.0457  155.3502 C.ar    1  UNL1        0.0757
     39 C         142.8934  132.0090  153.8846 C.ar    1  UNL1        0.0246
     40 C         142.1697  133.1566  153.2449 C.ar    1  UNL1        0.1003
     41 N         141.7632  134.3409  154.0708 N.ar    1  UNL1       -0.2290
     42 C         143.9341  130.8981  155.9900 C.3     1  UNL1        0.4187
     43 F         144.6579  129.7505  156.6298 F       1  UNL1       -0.1659
     44 F         142.6415  130.1455  156.1024 F       1  UNL1       -0.1659
     45 F         145.2269  131.6506  155.8776 F       1  UNL1       -0.1659
@<TRIPOS>BOND
     1    21    22    1
     2    22    13    1
     3    13    14    2
     4    13    15   am
     5    15    16    1
     6    16    17    1
     7    17    18    1
     8    18    19    1
     9    19     1    1
    10     1     2   ar
    11     2     3   ar
    12     3    26    1
    13    26    27   ar
    14    27    28   ar
    15    28    29   ar
    16    29    32    1
    17    32    33    2
    18    32    34   am
    19    34    36    1
    20    36    37   ar
    21    37    38   ar
    22    38    42    1
    23    42    43    1
    24    42    44    1
    25    42    45    1
    26    38    39   ar
    27    39    40   ar
    28    40    41   ar
    29    29    30   ar
    30    30    31   ar
    31     3     4   ar
    32     4     5   ar
    33     5     6    1
    34     5     7   ar
    35     7     8   ar
    36     8     9   ar
    37     9    10   ar
    38    19    20    1
    39    22    23    1
    40    23    24    1
    41    24    25    1
    42    25    22    1
    43    20    15    1
    44    10     1   ar
    45    31    26   ar
    46    10     4   ar
    47    41    36   ar
    48    34    35    1
    49     6    11    1
    50     6    12    1
@<TRIPOS>MOLECULE
*****
 45 50 0 0 0
SMALL
GASTEIGER

@<TRIPOS>ATOM
      1 C         138.1735  141.3918  157.2752 C.ar    1  UNL1        0.1255
      2 N         138.1974  141.0208  158.7283 N.ar    1  UNL1       -0.2305
      3 C         138.8605  142.1363  159.4807 C.ar    1  UNL1        0.1013
      4 C         139.2463  143.1968  158.4925 C.ar    1  UNL1        0.1141
      5 C         139.9294  144.5219  158.6577 C.ar    1  UNL1        0.1432
      6 N         140.3540  144.9820  160.0208 N.pl3   1  UNL1       -0.3414
      7 N         140.1879  145.3870  157.4599 N.ar    1  UNL1       -0.2265
      8 C         139.7633  144.9269  156.0968 C.ar    1  UNL1        0.1193
      9 C         139.0802  143.6017  155.9315 C.ar    1  UNL1        0.1020
     10 N         138.8217  142.7367  157.1294 N.ar    1  UNL1       -0.2884
     11 H         140.1843  144.4143  160.8070 H       1  UNL1        0.1438
     12 H         140.8023  145.8518  160.1293 H       1  UNL1        0.1438
     13 C         138.7233  137.6563  153.7054 C.2     1  UNL1        0.2295
     14 O         138.1515  136.8280  152.5932 O.2     1  UNL1       -0.2747
     15 N         137.8766  138.6958  154.3781 N.am    1  UNL1       -0.2790
     16 C         136.4580  138.9069  153.9386 C.3     1  UNL1        0.0934
     17 C         135.6113  139.9463  154.6113 C.3     1  UNL1        0.0220
     18 C         136.1831  140.7746  155.7235 C.3     1  UNL1        0.0110
     19 C         137.6017  140.5635  156.1630 C.3     1  UNL1        0.0771
     20 C         138.4484  139.5241  155.4903 C.3     1  UNL1        0.1008
     21 C         140.6168  138.3490  153.0458 C.3     1  UNL1        0.0142
     22 C         140.1419  137.4452  154.1447 C.3     1  UNL1        0.1234
     23 C         139.6670  136.5414  155.2437 C.3     1  UNL1        0.1531
     24 O         141.0856  136.3303  155.6830 O.3     1  UNL1       -0.3526
     25 C         141.5605  137.2340  154.5841 C.3     1  UNL1        0.1531
     26 C         139.0963  142.1832  160.9613 C.ar    1  UNL1        0.0192
     27 C         140.3446  141.5867  161.5412 C.ar    1  UNL1        0.0017
     28 C         140.5804  141.6336  163.0218 C.ar    1  UNL1        0.0046
     29 C         139.5681  142.2768  163.9225 C.ar    1  UNL1        0.0537
     30 C         138.3199  142.8732  163.3426 C.ar    1  UNL1        0.0046
     31 C         138.0840  142.8264  161.8620 C.ar    1  UNL1        0.0017
     32 C         139.8039  142.3237  165.4031 C.2     1  UNL1        0.2505
     33 O         139.6564  143.6187  166.1455 O.2     1  UNL1       -0.2698
     34 N         140.1872  141.0754  166.1413 N.am    1  UNL1       -0.2658
     35 H         140.2839  140.2255  165.6540 H       1  UNL1        0.1566
     36 C         140.4230  141.1222  167.6219 C.ar    1  UNL1        0.1343
     37 C         141.5949  141.8805  168.1712 C.ar    1  UNL1        0.0383
     38 C         141.8306  141.9272  169.6519 C.ar    1  UNL1        0.0757
     39 C         140.8946  141.2156  170.5832 C.ar    1  UNL1        0.0246
     40 C         139.7227  140.4573  170.0339 C.ar    1  UNL1        0.1003
     41 N         139.4870  140.4106  168.5533 N.ar    1  UNL1       -0.2290
     42 C         143.0025  142.6855  170.2010 C.3     1  UNL1        0.4187
     43 F         144.1744  143.4440  170.7503 F       1  UNL1       -0.1659
     44 F         143.8613  141.4645  170.0547 F       1  UNL1       -0.1659
     45 F         142.1437  143.9067  170.3475 F       1  UNL1       -0.1659
@<TRIPOS>BOND
     1    21    22    1
     2    22    13    1
     3    13    14    2
     4    13    15   am
     5    15    16    1
     6    16    17    1
     7    17    18    1
     8    18    19    1
     9    19     1    1
    10     1     2   ar
    11     2     3   ar
    12     3    26    1
    13    26    27   ar
    14    27    28   ar
    15    28    29   ar
    16    29    32    1
    17    32    33    2
    18    32    34   am
    19    34    36    1
    20    36    37   ar
    21    37    38   ar
    22    38    42    1
    23    42    43    1
    24    42    44    1
    25    42    45    1
    26    38    39   ar
    27    39    40   ar
    28    40    41   ar
    29    29    30   ar
    30    30    31   ar
    31     3     4   ar
    32     4     5   ar
    33     5     6    1
    34     5     7   ar
    35     7     8   ar
    36     8     9   ar
    37     9    10   ar
    38    19    20    1
    39    22    23    1
    40    23    24    1
    41    24    25    1
    42    25    22    1
    43    20    15    1
    44    10     1   ar
    45    31    26   ar
    46    10     4   ar
    47    41    36   ar
    48    34    35    1
    49     6    11    1
    50     6    12    1
