@<TRIPOS>MOLECULE
*****
 35 38 0 0 0
SMALL
GASTEIGER

@<TRIPOS>ATOM
      1 C         139.4807  140.9399  170.4482 C.3     1  UNL1        0.0518
      2 C         139.6143  140.7025  168.9731 C.ar    1  UNL1        0.0568
      3 N         138.9421  139.5205  168.3398 N.ar    1  UNL1       -0.2456
      4 C         139.0758  139.2830  166.8648 C.ar    1  UNL1        0.1319
      5 C         139.8815  140.2276  166.0230 C.ar    1  UNL1        0.0196
      6 C         140.5537  141.4096  166.6563 C.ar    1  UNL1       -0.0015
      7 C         140.4201  141.6470  168.1314 C.ar    1  UNL1        0.0068
      8 C         139.8348  139.7401  164.6052 C.3     1  UNL1        0.1226
      9 N         139.0002  138.4942  164.5707 N.am    1  UNL1       -0.2623
     10 C         138.5310  138.2117  165.9672 C.2     1  UNL1        0.2671
     11 O         137.6686  137.0602  166.3916 O.2     1  UNL1       -0.2682
     12 C         141.3595  142.3542  165.8146 C.ar    1  UNL1        0.0102
     13 C         142.8474  142.1899  165.7182 C.ar    1  UNL1        0.0017
     14 C         143.6533  143.1345  164.8765 C.ar    1  UNL1        0.0114
     15 C         142.9712  144.2432  164.1313 C.ar    1  UNL1        0.0585
     16 CL        143.7771  145.1878  163.2896 Cl      1  UNL1       -0.0822
     17 C         141.4834  144.4075  164.2277 C.ar    1  UNL1        0.0228
     18 C         140.6775  143.4629  165.0694 C.ar    1  UNL1        0.0585
     19 CL        139.1896  143.6272  165.1658 Cl      1  UNL1       -0.0822
     20 C         141.0923  142.8290  168.7647 C.3     1  UNL1        0.0934
     21 N         142.4768  142.6930  169.3255 N.3     1  UNL1       -0.3174
     22 H         142.4595  142.0585  170.1239 H       1  UNL1        0.1192
     23 H         142.8136  143.6079  169.6255 H       1  UNL1        0.1192
     24 C         138.6892  137.6747  163.3535 C.3     1  UNL1        0.1796
     25 C         138.6297  138.3281  162.0046 C.2     1  UNL1        0.2430
     26 O         139.6849  138.0318  160.9805 O.2     1  UNL1       -0.2732
     27 N         137.5149  139.2777  161.6797 N.am    1  UNL1       -0.2990
     28 H         136.8223  139.4722  162.3518 H       1  UNL1        0.1498
     29 C         137.4554  139.9310  160.3308 C.3     1  UNL1        0.1179
     30 C         138.2306  141.1889  160.0719 C.ar    1  UNL1        0.0166
     31 C         138.6645  142.0521  161.2193 C.ar    1  UNL1        0.0005
     32 C         139.4396  143.3099  160.9605 C.ar    1  UNL1        0.0204
     33 C         139.7809  143.7046  159.5540 C.ar    1  UNL1        0.0989
     34 N         139.3470  142.8414  158.4066 N.ar    1  UNL1       -0.2426
     35 C         138.5719  141.5835  158.6656 C.ar    1  UNL1        0.0962
@<TRIPOS>BOND
     1     1     2    1
     2     2     3   ar
     3     3     4   ar
     4     4     5   ar
     5     5     6   ar
     6     6    12    1
     7    12    13   ar
     8    13    14   ar
     9    14    15   ar
    10    15    16    1
    11    15    17   ar
    12    17    18   ar
    13    18    19    1
    14     6     7   ar
    15     7    20    1
    16    20    21    1
    17     5     8    1
    18     8     9    1
    19     9    24    1
    20    24    25    1
    21    25    26    2
    22    25    27   am
    23    27    29    1
    24    29    30    1
    25    30    31   ar
    26    31    32   ar
    27    32    33   ar
    28    33    34   ar
    29    34    35   ar
    30     9    10   am
    31    10    11    2
    32     7     2   ar
    33    35    30   ar
    34    10     4    1
    35    18    12   ar
    36    21    22    1
    37    21    23    1
    38    27    28    1
@<TRIPOS>MOLECULE
*****
 35 38 0 0 0
SMALL
GASTEIGER

@<TRIPOS>ATOM
      1 C         139.4480  140.9007  170.3270 C.3     1  UNL1        0.0518
      2 C         139.5998  140.6780  168.8514 C.ar    1  UNL1        0.0568
      3 N         138.9575  139.4878  168.2026 N.ar    1  UNL1       -0.2456
      4 C         139.1092  139.2650  166.7270 C.ar    1  UNL1        0.1319
      5 C         139.9034  140.2324  165.9002 C.ar    1  UNL1        0.0196
      6 C         140.5457  141.4225  166.5490 C.ar    1  UNL1       -0.0015
      7 C         140.3939  141.6453  168.0246 C.ar    1  UNL1        0.0068
      8 C         139.8794  139.7555  164.4783 C.3     1  UNL1        0.1226
      9 N         139.0705  138.4934  164.4262 N.am    1  UNL1       -0.2623
     10 C         138.5945  138.1903  165.8160 C.2     1  UNL1        0.2671
     11 O         137.7517  137.0182  166.2233 O.2     1  UNL1       -0.2682
     12 C         141.3399  142.3900  165.7223 C.ar    1  UNL1        0.0102
     13 C         140.6551  143.5481  165.0590 C.ar    1  UNL1        0.0017
     14 C         141.4492  144.5155  164.2322 C.ar    1  UNL1        0.0114
     15 C         142.9280  144.3248  164.0688 C.ar    1  UNL1        0.0585
     16 CL        143.7220  145.2923  163.2421 Cl      1  UNL1       -0.0822
     17 C         143.6127  143.1667  164.7321 C.ar    1  UNL1        0.0228
     18 C         142.8187  142.1993  165.5588 C.ar    1  UNL1        0.0585
     19 CL        143.5034  141.0412  166.2221 Cl      1  UNL1       -0.0822
     20 C         141.0363  142.8355  168.6735 C.3     1  UNL1        0.0934
     21 N         142.4193  142.7237  169.2434 N.3     1  UNL1       -0.3174
     22 H         142.4095  142.0817  170.0360 H       1  UNL1        0.1192
     23 H         142.7343  143.6427  169.5540 H       1  UNL1        0.1192
     24 C         138.7872  137.6777  163.1997 C.3     1  UNL1        0.1796
     25 C         139.4431  138.0291  161.8973 C.2     1  UNL1        0.2430
     26 O         138.6099  138.4912  160.7387 O.2     1  UNL1       -0.2732
     27 N         140.9321  137.9184  161.7533 N.am    1  UNL1       -0.2990
     28 H         141.4790  137.6151  162.5137 H       1  UNL1        0.1498
     29 C         141.5878  138.2698  160.4509 C.3     1  UNL1        0.1179
     30 C         142.3682  139.5446  160.3241 C.ar    1  UNL1        0.0166
     31 C         142.2477  140.6056  161.3775 C.ar    1  UNL1        0.0005
     32 C         143.0281  141.8804  161.2507 C.ar    1  UNL1        0.0204
     33 C         143.9289  142.0941  160.0704 C.ar    1  UNL1        0.0989
     34 N         144.0493  141.0331  159.0170 N.ar    1  UNL1       -0.2426
     35 C         143.2689  139.7583  159.1439 C.ar    1  UNL1        0.0962
@<TRIPOS>BOND
     1     1     2    1
     2     2     3   ar
     3     3     4   ar
     4     4     5   ar
     5     5     6   ar
     6     6    12    1
     7    12    13   ar
     8    13    14   ar
     9    14    15   ar
    10    15    16    1
    11    15    17   ar
    12    17    18   ar
    13    18    19    1
    14     6     7   ar
    15     7    20    1
    16    20    21    1
    17     5     8    1
    18     8     9    1
    19     9    24    1
    20    24    25    1
    21    25    26    2
    22    25    27   am
    23    27    29    1
    24    29    30    1
    25    30    31   ar
    26    31    32   ar
    27    32    33   ar
    28    33    34   ar
    29    34    35   ar
    30     9    10   am
    31    10    11    2
    32     7     2   ar
    33    35    30   ar
    34    10     4    1
    35    18    12   ar
    36    21    22    1
    37    21    23    1
    38    27    28    1
@<TRIPOS>MOLECULE
*****
 35 38 0 0 0
SMALL
GASTEIGER

@<TRIPOS>ATOM
      1 C         141.6154  140.3437  170.7433 C.3     1  UNL1        0.0518
      2 C         141.7621  140.2963  169.2512 C.ar    1  UNL1        0.0568
      3 N         142.7977  139.4083  168.6274 N.ar    1  UNL1       -0.2456
      4 C         142.9444  139.3608  167.1353 C.ar    1  UNL1        0.1319
      5 C         142.0557  140.2013  166.2671 C.ar    1  UNL1        0.0196
      6 C         141.0202  141.0893  166.8910 C.ar    1  UNL1       -0.0015
      7 C         140.8735  141.1367  168.3831 C.ar    1  UNL1        0.0068
      8 C         142.4302  139.9474  164.8370 C.3     1  UNL1        0.1226
      9 N         143.5504  138.9500  164.8214 N.am    1  UNL1       -0.2623
     10 C         143.8682  138.5874  166.2418 C.2     1  UNL1        0.2671
     11 O         144.9244  137.6212  166.6899 O.2     1  UNL1       -0.2682
     12 C         140.1314  141.9298  166.0229 C.ar    1  UNL1        0.0102
     13 C         140.4956  143.3562  165.7352 C.ar    1  UNL1        0.0017
     14 C         139.6069  144.1968  164.8671 C.ar    1  UNL1        0.0114
     15 C         138.3540  143.6109  164.2867 C.ar    1  UNL1        0.0585
     16 CL        137.4653  144.4515  163.4186 Cl      1  UNL1       -0.0822
     17 C         137.9898  142.1845  164.5743 C.ar    1  UNL1        0.0228
     18 C         138.8785  141.3439  165.4424 C.ar    1  UNL1        0.0585
     19 CL        138.5143  139.9175  165.7300 Cl      1  UNL1       -0.0822
     20 C         139.8379  142.0247  169.0070 C.3     1  UNL1        0.0934
     21 N         140.1769  143.4446  169.3520 N.3     1  UNL1       -0.3174
     22 H         140.8796  143.4564  170.0912 H       1  UNL1        0.1192
     23 H         139.3372  143.9262  169.6734 H       1  UNL1        0.1192
     24 C         144.2330  138.4099  163.5997 C.3     1  UNL1        0.1796
     25 C         143.5750  138.5316  162.2573 C.2     1  UNL1        0.2430
     26 O         144.2064  139.3703  161.1859 O.2     1  UNL1       -0.2732
     27 N         142.2856  137.8147  161.9862 N.am    1  UNL1       -0.2990
     28 H         141.8711  137.2643  162.6894 H       1  UNL1        0.1498
     29 C         141.6276  137.9366  160.6437 C.3     1  UNL1        0.1179
     30 C         140.2740  138.5723  160.5269 C.ar    1  UNL1        0.0166
     31 C         139.4549  138.8241  161.7580 C.ar    1  UNL1        0.0005
     32 C         138.1013  139.4598  161.6412 C.ar    1  UNL1        0.0204
     33 C         137.5668  139.8437  160.2932 C.ar    1  UNL1        0.0989
     34 N         138.3859  139.5918  159.0621 N.ar    1  UNL1       -0.2426
     35 C         139.7395  138.9561  159.1790 C.ar    1  UNL1        0.0962
@<TRIPOS>BOND
     1     1     2    1
     2     2     3   ar
     3     3     4   ar
     4     4     5   ar
     5     5     6   ar
     6     6    12    1
     7    12    13   ar
     8    13    14   ar
     9    14    15   ar
    10    15    16    1
    11    15    17   ar
    12    17    18   ar
    13    18    19    1
    14     6     7   ar
    15     7    20    1
    16    20    21    1
    17     5     8    1
    18     8     9    1
    19     9    24    1
    20    24    25    1
    21    25    26    2
    22    25    27   am
    23    27    29    1
    24    29    30    1
    25    30    31   ar
    26    31    32   ar
    27    32    33   ar
    28    33    34   ar
    29    34    35   ar
    30     9    10   am
    31    10    11    2
    32     7     2   ar
    33    35    30   ar
    34    10     4    1
    35    18    12   ar
    36    21    22    1
    37    21    23    1
    38    27    28    1
@<TRIPOS>MOLECULE
*****
 35 38 0 0 0
SMALL
GASTEIGER

@<TRIPOS>ATOM
      1 C         139.6193  145.1416  156.2091 C.3     1  UNL1        0.0518
      2 C         139.6328  144.2630  157.4248 C.ar    1  UNL1        0.0568
      3 N         138.7849  143.0263  157.4658 N.ar    1  UNL1       -0.2456
      4 C         138.7983  142.1477  158.6815 C.ar    1  UNL1        0.1319
      5 C         139.6597  142.5058  159.8562 C.ar    1  UNL1        0.0196
      6 C         140.5076  143.7424  159.8152 C.ar    1  UNL1       -0.0015
      7 C         140.4941  144.6210  158.5994 C.ar    1  UNL1        0.0068
      8 C         139.4677  141.4549  160.9092 C.3     1  UNL1        0.1226
      9 N         138.4876  140.4474  160.3853 N.am    1  UNL1       -0.2623
     10 C         138.0740  140.8756  159.0085 C.2     1  UNL1        0.2671
     11 O         137.1059  140.1576  158.1155 O.2     1  UNL1       -0.2682
     12 C         141.3690  144.1005  160.9899 C.ar    1  UNL1        0.0102
     13 C         142.7639  143.5581  161.0900 C.ar    1  UNL1        0.0017
     14 C         143.6253  143.9162  162.2646 C.ar    1  UNL1        0.0114
     15 C         143.0918  144.8167  163.3390 C.ar    1  UNL1        0.0585
     16 CL        143.9533  145.1747  164.5136 Cl      1  UNL1       -0.0822
     17 C         141.6969  145.3591  163.2389 C.ar    1  UNL1        0.0228
     18 C         140.8355  145.0010  162.0643 C.ar    1  UNL1        0.0585
     19 CL        139.4406  145.5434  161.9642 Cl      1  UNL1       -0.0822
     20 C         141.3421  145.8578  158.5585 C.3     1  UNL1        0.0934
     21 N         142.6407  145.8522  157.8078 N.3     1  UNL1       -0.3174
     22 H         143.2931  145.2129  158.2618 H       1  UNL1        0.1192
     23 H         143.0346  146.7930  157.8028 H       1  UNL1        0.1192
     24 C         138.0058  139.2262  161.1108 C.3     1  UNL1        0.1796
     25 C         138.7459  138.7299  162.3175 C.2     1  UNL1        0.2430
     26 O         138.3239  139.1678  163.6887 O.2     1  UNL1       -0.2732
     27 N         139.9079  137.7957  162.1531 N.am    1  UNL1       -0.2990
     28 H         140.1849  137.5082  161.2531 H       1  UNL1        0.1498
     29 C         140.6478  137.2994  163.3598 C.3     1  UNL1        0.1179
     30 C         141.9420  137.9419  163.7625 C.ar    1  UNL1        0.0166
     31 C         142.2486  138.1657  165.2137 C.ar    1  UNL1        0.0005
     32 C         143.5428  138.8082  165.6165 C.ar    1  UNL1        0.0204
     33 C         144.5305  139.2270  164.5680 C.ar    1  UNL1        0.0989
     34 N         144.2239  139.0032  163.1168 N.ar    1  UNL1       -0.2426
     35 C         142.9297  138.3607  162.7141 C.ar    1  UNL1        0.0962
@<TRIPOS>BOND
     1     1     2    1
     2     2     3   ar
     3     3     4   ar
     4     4     5   ar
     5     5     6   ar
     6     6    12    1
     7    12    13   ar
     8    13    14   ar
     9    14    15   ar
    10    15    16    1
    11    15    17   ar
    12    17    18   ar
    13    18    19    1
    14     6     7   ar
    15     7    20    1
    16    20    21    1
    17     5     8    1
    18     8     9    1
    19     9    24    1
    20    24    25    1
    21    25    26    2
    22    25    27   am
    23    27    29    1
    24    29    30    1
    25    30    31   ar
    26    31    32   ar
    27    32    33   ar
    28    33    34   ar
    29    34    35   ar
    30     9    10   am
    31    10    11    2
    32     7     2   ar
    33    35    30   ar
    34    10     4    1
    35    18    12   ar
    36    21    22    1
    37    21    23    1
    38    27    28    1
@<TRIPOS>MOLECULE
*****
 35 38 0 0 0
SMALL
GASTEIGER

@<TRIPOS>ATOM
      1 C         139.7259  140.1872  158.3849 C.3     1  UNL1        0.0518
      2 C         140.3280  140.4325  159.7368 C.ar    1  UNL1        0.0568
      3 N         141.6222  141.1812  159.8567 N.ar    1  UNL1       -0.2456
      4 C         142.2243  141.4264  161.2085 C.ar    1  UNL1        0.1319
      5 C         141.5322  140.9230  162.4403 C.ar    1  UNL1        0.0196
      6 C         140.2379  140.1743  162.3205 C.ar    1  UNL1       -0.0015
      7 C         139.6358  139.9291  160.9686 C.ar    1  UNL1        0.0068
      8 C         142.3595  141.3132  163.6291 C.3     1  UNL1        0.1226
      9 N         143.5630  142.0578  163.1319 N.am    1  UNL1       -0.2623
     10 C         143.4795  142.1278  161.6359 C.2     1  UNL1        0.2671
     11 O         144.4761  142.7839  160.7269 O.2     1  UNL1       -0.2682
     12 C         139.5457  139.6709  163.5523 C.ar    1  UNL1        0.0102
     13 C         138.6925  140.5988  164.3653 C.ar    1  UNL1        0.0017
     14 C         138.0002  140.0954  165.5971 C.ar    1  UNL1        0.0114
     15 C         138.1613  138.6642  166.0159 C.ar    1  UNL1        0.0585
     16 CL        137.4690  138.1608  167.2478 Cl      1  UNL1       -0.0822
     17 C         139.0145  137.7362  165.2030 C.ar    1  UNL1        0.0228
     18 C         139.7068  138.2396  163.9711 C.ar    1  UNL1        0.0585
     19 CL        140.5600  137.3117  163.1582 Cl      1  UNL1       -0.0822
     20 C         138.3415  139.1803  160.8487 C.3     1  UNL1        0.0934
     21 N         137.0378  139.9154  160.9484 N.3     1  UNL1       -0.3174
     22 H         136.9308  140.2916  161.8905 H       1  UNL1        0.1192
     23 H         136.2699  139.2744  160.7490 H       1  UNL1        0.1192
     24 C         144.6579  142.6317  163.9816 C.3     1  UNL1        0.1796
     25 C         144.3939  142.9665  165.4197 C.2     1  UNL1        0.2430
     26 O         145.1620  144.0690  166.0863 O.2     1  UNL1       -0.2732
     27 N         143.3617  142.1988  166.1913 N.am    1  UNL1       -0.2990
     28 H         142.8575  141.4752  165.7539 H       1  UNL1        0.1498
     29 C         143.0978  142.5336  167.6294 C.3     1  UNL1        0.1179
     30 C         141.8858  141.9797  168.3182 C.ar    1  UNL1        0.0166
     31 C         141.4474  140.5710  168.0473 C.ar    1  UNL1        0.0005
     32 C         140.2354  140.0172  168.7360 C.ar    1  UNL1        0.0204
     33 C         139.4618  140.8720  169.6957 C.ar    1  UNL1        0.0989
     34 N         139.9002  142.2807  169.9666 N.ar    1  UNL1       -0.2426
     35 C         141.1122  142.8345  169.2778 C.ar    1  UNL1        0.0962
@<TRIPOS>BOND
     1     1     2    1
     2     2     3   ar
     3     3     4   ar
     4     4     5   ar
     5     5     6   ar
     6     6    12    1
     7    12    13   ar
     8    13    14   ar
     9    14    15   ar
    10    15    16    1
    11    15    17   ar
    12    17    18   ar
    13    18    19    1
    14     6     7   ar
    15     7    20    1
    16    20    21    1
    17     5     8    1
    18     8     9    1
    19     9    24    1
    20    24    25    1
    21    25    26    2
    22    25    27   am
    23    27    29    1
    24    29    30    1
    25    30    31   ar
    26    31    32   ar
    27    32    33   ar
    28    33    34   ar
    29    34    35   ar
    30     9    10   am
    31    10    11    2
    32     7     2   ar
    33    35    30   ar
    34    10     4    1
    35    18    12   ar
    36    21    22    1
    37    21    23    1
    38    27    28    1
@<TRIPOS>MOLECULE
*****
 35 38 0 0 0
SMALL
GASTEIGER

@<TRIPOS>ATOM
      1 C         139.5985  145.2541  155.9984 C.3     1  UNL1        0.0518
      2 C         139.5778  144.3494  157.1947 C.ar    1  UNL1        0.0568
      3 N         138.7038  143.1304  157.1981 N.ar    1  UNL1       -0.2456
      4 C         138.6830  142.2257  158.3944 C.ar    1  UNL1        0.1319
      5 C         139.5363  142.5401  159.5873 C.ar    1  UNL1        0.0196
      6 C         140.4104  143.7591  159.5840 C.ar    1  UNL1       -0.0015
      7 C         140.4311  144.6638  158.3876 C.ar    1  UNL1        0.0068
      8 C         139.3087  141.4711  160.6147 C.3     1  UNL1        0.1226
      9 N         138.3148  140.4961  160.0567 N.am    1  UNL1       -0.2623
     10 C         137.9280  140.9625  158.6845 C.2     1  UNL1        0.2671
     11 O         136.9569  140.2846  157.7641 O.2     1  UNL1       -0.2682
     12 C         141.2637  144.0735  160.7769 C.ar    1  UNL1        0.0102
     13 C         140.7087  144.8994  161.8993 C.ar    1  UNL1        0.0017
     14 C         141.5619  145.2138  163.0922 C.ar    1  UNL1        0.0114
     15 C         142.9702  144.7024  163.1626 C.ar    1  UNL1        0.0585
     16 CL        143.8235  145.0169  164.3555 Cl      1  UNL1       -0.0822
     17 C         143.5253  143.8766  162.0402 C.ar    1  UNL1        0.0228
     18 C         142.6721  143.5621  160.8473 C.ar    1  UNL1        0.0585
     19 CL        143.2272  142.7363  159.7249 Cl      1  UNL1       -0.0822
     20 C         141.3052  145.8829  158.3842 C.3     1  UNL1        0.0934
     21 N         142.6343  145.8508  157.6897 N.3     1  UNL1       -0.3174
     22 H         143.2535  145.1982  158.1705 H       1  UNL1        0.1192
     23 H         143.0473  146.7834  157.7026 H       1  UNL1        0.1192
     24 C         137.7981  139.2700  160.7494 C.3     1  UNL1        0.1796
     25 C         138.6243  138.6028  161.8087 C.2     1  UNL1        0.2430
     26 O         139.7833  137.7337  161.4194 O.2     1  UNL1       -0.2732
     27 N         138.2917  138.8046  163.2574 N.am    1  UNL1       -0.2990
     28 H         137.5310  139.3750  163.5130 H       1  UNL1        0.1498
     29 C         139.1179  138.1373  164.3166 C.3     1  UNL1        0.1179
     30 C         139.2243  138.7501  165.6816 C.ar    1  UNL1        0.0166
     31 C         140.4483  139.5302  166.0602 C.ar    1  UNL1        0.0005
     32 C         140.5546  140.1429  167.4252 C.ar    1  UNL1        0.0204
     33 C         139.4370  139.9757  168.4117 C.ar    1  UNL1        0.0989
     34 N         138.2130  139.1956  168.0330 N.ar    1  UNL1       -0.2426
     35 C         138.1067  138.5828  166.6680 C.ar    1  UNL1        0.0962
@<TRIPOS>BOND
     1     1     2    1
     2     2     3   ar
     3     3     4   ar
     4     4     5   ar
     5     5     6   ar
     6     6    12    1
     7    12    13   ar
     8    13    14   ar
     9    14    15   ar
    10    15    16    1
    11    15    17   ar
    12    17    18   ar
    13    18    19    1
    14     6     7   ar
    15     7    20    1
    16    20    21    1
    17     5     8    1
    18     8     9    1
    19     9    24    1
    20    24    25    1
    21    25    26    2
    22    25    27   am
    23    27    29    1
    24    29    30    1
    25    30    31   ar
    26    31    32   ar
    27    32    33   ar
    28    33    34   ar
    29    34    35   ar
    30     9    10   am
    31    10    11    2
    32     7     2   ar
    33    35    30   ar
    34    10     4    1
    35    18    12   ar
    36    21    22    1
    37    21    23    1
    38    27    28    1
@<TRIPOS>MOLECULE
*****
 35 38 0 0 0
SMALL
GASTEIGER

@<TRIPOS>ATOM
      1 C         142.5546  142.6985  158.4861 C.3     1  UNL1        0.0518
      2 C         142.2781  142.1495  159.8545 C.ar    1  UNL1        0.0568
      3 N         142.9242  140.8688  160.2932 N.ar    1  UNL1       -0.2456
      4 C         142.6478  140.3198  161.6615 C.ar    1  UNL1        0.1319
      5 C         141.7254  141.0513  162.5910 C.ar    1  UNL1        0.0196
      6 C         141.0794  142.3320  162.1522 C.ar    1  UNL1       -0.0015
      7 C         141.3558  142.8811  160.7839 C.ar    1  UNL1        0.0068
      8 C         141.6433  140.2728  163.8704 C.3     1  UNL1        0.1226
      9 N         142.5150  139.0600  163.7317 N.am    1  UNL1       -0.2623
     10 C         143.1358  139.0890  162.3665 C.2     1  UNL1        0.2671
     11 O         144.0790  138.0667  161.8049 O.2     1  UNL1       -0.2682
     12 C         140.1569  143.0637  163.0817 C.ar    1  UNL1        0.0102
     13 C         138.6910  142.7460  163.0871 C.ar    1  UNL1        0.0017
     14 C         137.7685  143.4776  164.0165 C.ar    1  UNL1        0.0114
     15 C         138.3120  144.5269  164.9404 C.ar    1  UNL1        0.0585
     16 CL        137.3896  145.2585  165.8698 Cl      1  UNL1       -0.0822
     17 C         139.7780  144.8445  164.9350 C.ar    1  UNL1        0.0228
     18 C         140.7005  144.1129  164.0056 C.ar    1  UNL1        0.0585
     19 CL        142.1665  144.4305  164.0001 Cl      1  UNL1       -0.0822
     20 C         140.7097  144.1618  160.3451 C.3     1  UNL1        0.0934
     21 N         141.4302  145.4651  160.5244 N.3     1  UNL1       -0.3174
     22 H         141.5374  145.6603  161.5198 H       1  UNL1        0.1192
     23 H         140.8928  146.2137  160.0870 H       1  UNL1        0.1192
     24 C         142.7285  138.0035  164.7750 C.3     1  UNL1        0.1796
     25 C         143.0380  138.3974  166.1888 C.2     1  UNL1        0.2430
     26 O         144.3131  137.9398  166.8328 O.2     1  UNL1       -0.2732
     27 N         142.0726  139.2490  166.9588 N.am    1  UNL1       -0.2990
     28 H         141.2357  139.5494  166.5362 H       1  UNL1        0.1498
     29 C         142.3822  139.6429  168.3726 C.3     1  UNL1        0.1179
     30 C         141.5304  140.6609  169.0712 C.ar    1  UNL1        0.0166
     31 C         141.8391  142.1219  168.9290 C.ar    1  UNL1        0.0005
     32 C         140.9873  143.1399  169.6276 C.ar    1  UNL1        0.0204
     33 C         139.8267  142.6969  170.4684 C.ar    1  UNL1        0.0989
     34 N         139.5180  141.2360  170.6106 N.ar    1  UNL1       -0.2426
     35 C         140.3698  140.2180  169.9120 C.ar    1  UNL1        0.0962
@<TRIPOS>BOND
     1     1     2    1
     2     2     3   ar
     3     3     4   ar
     4     4     5   ar
     5     5     6   ar
     6     6    12    1
     7    12    13   ar
     8    13    14   ar
     9    14    15   ar
    10    15    16    1
    11    15    17   ar
    12    17    18   ar
    13    18    19    1
    14     6     7   ar
    15     7    20    1
    16    20    21    1
    17     5     8    1
    18     8     9    1
    19     9    24    1
    20    24    25    1
    21    25    26    2
    22    25    27   am
    23    27    29    1
    24    29    30    1
    25    30    31   ar
    26    31    32   ar
    27    32    33   ar
    28    33    34   ar
    29    34    35   ar
    30     9    10   am
    31    10    11    2
    32     7     2   ar
    33    35    30   ar
    34    10     4    1
    35    18    12   ar
    36    21    22    1
    37    21    23    1
    38    27    28    1
@<TRIPOS>MOLECULE
*****
 35 38 0 0 0
SMALL
GASTEIGER

@<TRIPOS>ATOM
      1 C         142.6735  144.2410  157.7295 C.3     1  UNL1        0.0518
      2 C         142.2823  143.3317  158.8566 C.ar    1  UNL1        0.0568
      3 N         142.6656  141.8820  158.8182 N.ar    1  UNL1       -0.2456
      4 C         142.2744  140.9727  159.9452 C.ar    1  UNL1        0.1319
      5 C         141.5001  141.5131  161.1107 C.ar    1  UNL1        0.0196
      6 C         141.1168  142.9628  161.1491 C.ar    1  UNL1       -0.0015
      7 C         141.5080  143.8721  160.0220 C.ar    1  UNL1        0.0068
      8 C         141.2564  140.3848  162.0686 C.3     1  UNL1        0.1226
      9 N         141.8802  139.1471  161.4951 N.am    1  UNL1       -0.2623
     10 C         142.5094  139.5104  160.1828 C.2     1  UNL1        0.2671
     11 O         143.2444  138.5755  159.2686 O.2     1  UNL1       -0.2682
     12 C         140.3425  143.5033  162.3146 C.ar    1  UNL1        0.0102
     13 C         138.8436  143.5373  162.2681 C.ar    1  UNL1        0.0017
     14 C         138.0692  144.0778  163.4335 C.ar    1  UNL1        0.0114
     15 C         138.7937  144.5842  164.6453 C.ar    1  UNL1        0.0585
     16 CL        138.0192  145.1247  165.8107 Cl      1  UNL1       -0.0822
     17 C         140.2926  144.5502  164.6918 C.ar    1  UNL1        0.0228
     18 C         141.0670  144.0098  163.5264 C.ar    1  UNL1        0.0585
     19 CL        142.5659  143.9758  163.5729 Cl      1  UNL1       -0.0822
     20 C         141.1248  145.3219  160.0605 C.3     1  UNL1        0.0934
     21 N         139.7984  145.7617  159.5153 N.3     1  UNL1       -0.3174
     22 H         139.7765  145.6060  158.5075 H       1  UNL1        0.1192
     23 H         139.6633  146.7540  159.7091 H       1  UNL1        0.1192
     24 C         141.8756  137.7851  162.1236 C.3     1  UNL1        0.1796
     25 C         141.9498  137.6472  163.6154 C.2     1  UNL1        0.2430
     26 O         141.0873  136.6421  164.3195 O.2     1  UNL1       -0.2732
     27 N         142.8864  138.5145  164.4032 N.am    1  UNL1       -0.2990
     28 H         143.4525  139.1743  163.9411 H       1  UNL1        0.1498
     29 C         142.9605  138.3766  165.8950 C.3     1  UNL1        0.1179
     30 C         142.8906  139.5963  166.7653 C.ar    1  UNL1        0.0166
     31 C         143.0412  140.9600  166.1589 C.ar    1  UNL1        0.0005
     32 C         142.9713  142.1797  167.0292 C.ar    1  UNL1        0.0204
     33 C         142.7508  142.0357  168.5059 C.ar    1  UNL1        0.0989
     34 N         142.6001  140.6721  169.1123 N.ar    1  UNL1       -0.2426
     35 C         142.6700  139.4524  168.2420 C.ar    1  UNL1        0.0962
@<TRIPOS>BOND
     1     1     2    1
     2     2     3   ar
     3     3     4   ar
     4     4     5   ar
     5     5     6   ar
     6     6    12    1
     7    12    13   ar
     8    13    14   ar
     9    14    15   ar
    10    15    16    1
    11    15    17   ar
    12    17    18   ar
    13    18    19    1
    14     6     7   ar
    15     7    20    1
    16    20    21    1
    17     5     8    1
    18     8     9    1
    19     9    24    1
    20    24    25    1
    21    25    26    2
    22    25    27   am
    23    27    29    1
    24    29    30    1
    25    30    31   ar
    26    31    32   ar
    27    32    33   ar
    28    33    34   ar
    29    34    35   ar
    30     9    10   am
    31    10    11    2
    32     7     2   ar
    33    35    30   ar
    34    10     4    1
    35    18    12   ar
    36    21    22    1
    37    21    23    1
    38    27    28    1
@<TRIPOS>MOLECULE
*****
 35 38 0 0 0
SMALL
GASTEIGER

@<TRIPOS>ATOM
      1 C         142.4477  144.9780  156.7585 C.3     1  UNL1        0.0518
      2 C         142.3247  143.9890  157.8796 C.ar    1  UNL1        0.0568
      3 N         142.8907  142.6083  157.7271 N.ar    1  UNL1       -0.2456
      4 C         142.7678  141.6194  158.8482 C.ar    1  UNL1        0.1319
      5 C         142.0789  142.0111  160.1218 C.ar    1  UNL1        0.0196
      6 C         141.5129  143.3918  160.2743 C.ar    1  UNL1       -0.0015
      7 C         141.6359  144.3808  159.1531 C.ar    1  UNL1        0.0068
      8 C         142.1093  140.8310  161.0472 C.3     1  UNL1        0.1226
      9 N         142.8169  139.7099  160.3456 N.am    1  UNL1       -0.2623
     10 C         143.2239  140.1971  158.9865 C.2     1  UNL1        0.2671
     11 O         143.9581  139.4017  157.9481 O.2     1  UNL1       -0.2682
     12 C         140.8240  143.7837  161.5478 C.ar    1  UNL1        0.0102
     13 C         139.3379  143.6255  161.6759 C.ar    1  UNL1        0.0017
     14 C         138.6489  144.0173  162.9494 C.ar    1  UNL1        0.0114
     15 C         139.4461  144.5673  164.0947 C.ar    1  UNL1        0.0585
     16 CL        138.7571  144.9591  165.3682 Cl      1  UNL1       -0.0822
     17 C         140.9322  144.7255  163.9667 C.ar    1  UNL1        0.0228
     18 C         141.6212  144.3337  162.6932 C.ar    1  UNL1        0.0585
     19 CL        143.1073  144.4919  162.5651 Cl      1  UNL1       -0.0822
     20 C         141.0698  145.7616  159.3056 C.3     1  UNL1        0.0934
     21 N         139.6533  146.0406  158.8988 N.3     1  UNL1       -0.3174
     22 H         139.5612  145.9290  157.8892 H       1  UNL1        0.1192
     23 H         139.4066  146.9955  159.1592 H       1  UNL1        0.1192
     24 C         143.0727  138.3418  160.9048 C.3     1  UNL1        0.1796
     25 C         142.8042  138.0615  162.3536 C.2     1  UNL1        0.2430
     26 O         143.7390  138.5831  163.4043 O.2     1  UNL1       -0.2732
     27 N         141.6007  137.2595  162.7520 N.am    1  UNL1       -0.2990
     28 H         140.9871  136.9171  162.0624 H       1  UNL1        0.1498
     29 C         141.3322  136.9793  164.2009 C.3     1  UNL1        0.1179
     30 C         140.5270  137.9479  165.0153 C.ar    1  UNL1        0.0166
     31 C         139.0349  137.8103  165.0853 C.ar    1  UNL1        0.0005
     32 C         138.2297  138.7789  165.8997 C.ar    1  UNL1        0.0204
     33 C         138.9166  139.8852  166.6444 C.ar    1  UNL1        0.0989
     34 N         140.4086  140.0229  166.5745 N.ar    1  UNL1       -0.2426
     35 C         141.2138  139.0542  165.7599 C.ar    1  UNL1        0.0962
@<TRIPOS>BOND
     1     1     2    1
     2     2     3   ar
     3     3     4   ar
     4     4     5   ar
     5     5     6   ar
     6     6    12    1
     7    12    13   ar
     8    13    14   ar
     9    14    15   ar
    10    15    16    1
    11    15    17   ar
    12    17    18   ar
    13    18    19    1
    14     6     7   ar
    15     7    20    1
    16    20    21    1
    17     5     8    1
    18     8     9    1
    19     9    24    1
    20    24    25    1
    21    25    26    2
    22    25    27   am
    23    27    29    1
    24    29    30    1
    25    30    31   ar
    26    31    32   ar
    27    32    33   ar
    28    33    34   ar
    29    34    35   ar
    30     9    10   am
    31    10    11    2
    32     7     2   ar
    33    35    30   ar
    34    10     4    1
    35    18    12   ar
    36    21    22    1
    37    21    23    1
    38    27    28    1
