@<TRIPOS>MOLECULE
*****
 33 36 0 0 0
SMALL
GASTEIGER

@<TRIPOS>ATOM
      1 C         138.2098  141.3421  161.7523 C.ar    1  UNL1        0.1416
      2 C         138.1610  140.4456  162.9539 C.ar    1  UNL1        0.0743
      3 C         138.7618  139.0726  162.8903 C.ar    1  UNL1        0.1485
      4 C         139.4116  138.5962  161.6250 C.ar    1  UNL1        0.0422
      5 C         139.4604  139.4927  160.4235 C.ar    1  UNL1        0.0597
      6 C         138.8596  140.8656  160.4871 C.ar    1  UNL1        0.0416
      7 C         140.1102  139.0163  159.1581 C.2     1  UNL1        0.2508
      8 O         139.2675  138.4887  158.0350 O.2     1  UNL1       -0.2698
      9 N         141.6025  139.0675  159.0160 N.am    1  UNL1       -0.2644
     10 H         142.1556  139.4138  159.7532 H       1  UNL1        0.1566
     11 C         142.2523  138.5911  157.7507 C.ar    1  UNL1        0.1557
     12 C         142.3669  139.3672  156.4722 C.ar    1  UNL1        0.0564
     13 C         143.0869  138.5107  155.4731 C.ar    1  UNL1        0.0981
     14 N         143.4172  137.2054  156.1342 N.ar    1  UNL1       -0.2462
     15 C         144.1370  136.0528  155.4992 C.3     1  UNL1        0.1538
     16 N         142.9014  137.2551  157.5418 N.ar    1  UNL1       -0.1539
     17 O         137.6090  142.7150  161.8159 O.3     1  UNL1       -0.4791
     18 C         137.6739  143.6218  164.2497 C.3     1  UNL1        0.0472
     19 C         138.1148  143.7093  162.8186 C.3     1  UNL1        0.1661
     20 C         139.0615  144.7912  162.3903 C.3     1  UNL1        0.0472
     21 O         138.7130  138.1761  164.0919 O.3     1  UNL1       -0.4534
     22 C         138.9254  138.7470  165.4627 C.ar    1  UNL1        0.1453
     23 C         137.8440  138.6378  166.4965 C.ar    1  UNL1        0.0376
     24 C         138.0565  139.2087  167.8673 C.ar    1  UNL1        0.0076
     25 C         139.3503  139.8888  168.2042 C.ar    1  UNL1        0.0538
     26 C         140.4316  139.9981  167.1704 C.ar    1  UNL1        0.0076
     27 C         140.2192  139.4272  165.7996 C.ar    1  UNL1        0.0376
     28 C         139.5628  140.4597  169.5749 C.2     1  UNL1        0.2490
     29 O         139.3606  139.5980  170.7859 O.2     1  UNL1       -0.2699
     30 N         139.9775  141.8925  169.7347 N.am    1  UNL1       -0.2760
     31 C         140.2665  143.0243  168.7937 C.3     1  UNL1        0.0955
     32 C         140.5639  143.9186  169.9606 C.3     1  UNL1        0.0430
     33 C         140.2749  142.7867  170.9016 C.3     1  UNL1        0.0955
@<TRIPOS>BOND
     1    18    19    1
     2    19    20    1
     3    19    17    1
     4    17     1    1
     5     1     2   ar
     6     2     3   ar
     7     3    21    1
     8    21    22    1
     9    22    23   ar
    10    23    24   ar
    11    24    25   ar
    12    25    28    1
    13    28    29    2
    14    28    30   am
    15    30    31    1
    16    31    32    1
    17    32    33    1
    18    25    26   ar
    19    26    27   ar
    20     3     4   ar
    21     4     5   ar
    22     5     7    1
    23     7     8    2
    24     7     9   am
    25     9    11    1
    26    11    12   ar
    27    12    13   ar
    28    13    14   ar
    29    14    15    1
    30    14    16   ar
    31     5     6   ar
    32     6     1   ar
    33    27    22   ar
    34    16    11   ar
    35    33    30    1
    36     9    10    1
@<TRIPOS>MOLECULE
*****
 33 36 0 0 0
SMALL
GASTEIGER

@<TRIPOS>ATOM
      1 C         144.4813  140.9443  162.9047 C.ar    1  UNL1        0.1416
      2 C         143.8200  140.1083  163.9600 C.ar    1  UNL1        0.0743
      3 C         143.0129  138.9062  163.5681 C.ar    1  UNL1        0.1485
      4 C         142.8672  138.5400  162.1208 C.ar    1  UNL1        0.0422
      5 C         143.5285  139.3760  161.0655 C.ar    1  UNL1        0.0597
      6 C         144.3356  140.5781  161.4574 C.ar    1  UNL1        0.0416
      7 C         143.3828  139.0098  159.6181 C.2     1  UNL1        0.2508
      8 O         144.1460  139.7674  158.5723 O.2     1  UNL1       -0.2698
      9 N         142.4739  137.8862  159.2166 N.am    1  UNL1       -0.2644
     10 H         141.9730  137.3890  159.9029 H       1  UNL1        0.1566
     11 C         142.3282  137.5200  157.7692 C.ar    1  UNL1        0.1557
     12 C         141.5092  138.2572  156.7515 C.ar    1  UNL1        0.0564
     13 C         141.6507  137.5453  155.4387 C.ar    1  UNL1        0.0981
     14 N         142.5572  136.3681  155.6453 N.ar    1  UNL1       -0.2462
     15 C         142.9721  135.3801  154.5958 C.3     1  UNL1        0.1538
     16 N         142.9759  136.3525  157.0855 N.ar    1  UNL1       -0.1539
     17 O         145.2883  142.1464  163.2966 O.3     1  UNL1       -0.4791
     18 C         144.0111  144.3691  162.8744 C.3     1  UNL1        0.0472
     19 C         144.6018  143.3707  163.8253 C.3     1  UNL1        0.1661
     20 C         144.5060  143.5968  165.3052 C.3     1  UNL1        0.0472
     21 O         142.3516  138.0702  164.6235 O.3     1  UNL1       -0.4534
     22 C         141.7130  138.7284  165.8105 C.ar    1  UNL1        0.1453
     23 C         140.2423  139.0241  165.8032 C.ar    1  UNL1        0.0376
     24 C         139.6037  139.6822  166.9902 C.ar    1  UNL1        0.0076
     25 C         140.4357  140.0446  168.1846 C.ar    1  UNL1        0.0538
     26 C         141.9062  139.7489  168.1919 C.ar    1  UNL1        0.0076
     27 C         142.5448  139.0908  167.0049 C.ar    1  UNL1        0.0376
     28 C         139.7971  140.7028  169.3716 C.2     1  UNL1        0.2490
     29 O         138.8765  139.9185  170.2589 O.2     1  UNL1       -0.2699
     30 N         140.0791  142.1453  169.6713 N.am    1  UNL1       -0.2760
     31 C         140.9150  143.2168  169.0364 C.3     1  UNL1        0.0955
     32 C         140.4778  144.1852  170.0952 C.3     1  UNL1        0.0430
     33 C         139.6419  143.1137  170.7301 C.3     1  UNL1        0.0955
@<TRIPOS>BOND
     1    18    19    1
     2    19    20    1
     3    19    17    1
     4    17     1    1
     5     1     2   ar
     6     2     3   ar
     7     3    21    1
     8    21    22    1
     9    22    23   ar
    10    23    24   ar
    11    24    25   ar
    12    25    28    1
    13    28    29    2
    14    28    30   am
    15    30    31    1
    16    31    32    1
    17    32    33    1
    18    25    26   ar
    19    26    27   ar
    20     3     4   ar
    21     4     5   ar
    22     5     7    1
    23     7     8    2
    24     7     9   am
    25     9    11    1
    26    11    12   ar
    27    12    13   ar
    28    13    14   ar
    29    14    15    1
    30    14    16   ar
    31     5     6   ar
    32     6     1   ar
    33    27    22   ar
    34    16    11   ar
    35    33    30    1
    36     9    10    1
@<TRIPOS>MOLECULE
*****
 33 36 0 0 0
SMALL
GASTEIGER

@<TRIPOS>ATOM
      1 C         139.7632  144.7125  162.1318 C.ar    1  UNL1        0.1416
      2 C         140.8513  143.8594  162.7132 C.ar    1  UNL1        0.0743
      3 C         142.0839  143.5656  161.9104 C.ar    1  UNL1        0.1485
      4 C         142.2283  144.1250  160.5261 C.ar    1  UNL1        0.0422
      5 C         141.1401  144.9781  159.9447 C.ar    1  UNL1        0.0597
      6 C         139.9076  145.2719  160.7476 C.ar    1  UNL1        0.0416
      7 C         141.2845  145.5375  158.5604 C.2     1  UNL1        0.2508
      8 O         142.6053  146.0849  158.1067 O.2     1  UNL1       -0.2698
      9 N         140.1081  145.5496  157.6299 N.am    1  UNL1       -0.2644
     10 H         139.2413  145.1903  157.9277 H       1  UNL1        0.1566
     11 C         140.2525  146.1090  156.2455 C.ar    1  UNL1        0.1557
     12 C         140.8683  145.4078  155.0711 C.ar    1  UNL1        0.0564
     13 C         140.8028  146.3333  153.8923 C.ar    1  UNL1        0.0981
     14 N         140.1466  147.6063  154.3384 N.ar    1  UNL1       -0.2462
     15 C         139.8778  148.8070  153.4806 C.3     1  UNL1        0.1538
     16 N         139.8065  147.4677  155.7927 N.ar    1  UNL1       -0.1539
     17 O         138.5306  145.0063  162.9346 O.3     1  UNL1       -0.4791
     18 C         138.5903  144.9610  165.5316 C.3     1  UNL1        0.0472
     19 C         138.2879  144.2850  164.2272 C.3     1  UNL1        0.1661
     20 C         137.7427  142.8875  164.2154 C.3     1  UNL1        0.0472
     21 O         143.1720  142.7124  162.4919 O.3     1  UNL1       -0.4534
     22 C         142.9566  142.0106  163.7999 C.ar    1  UNL1        0.1453
     23 C         142.3257  140.6499  163.8260 C.ar    1  UNL1        0.0376
     24 C         142.1103  139.9481  165.1341 C.ar    1  UNL1        0.0076
     25 C         142.5257  140.6069  166.4161 C.ar    1  UNL1        0.0538
     26 C         143.1566  141.9675  166.3899 C.ar    1  UNL1        0.0076
     27 C         143.3720  142.6693  165.0819 C.ar    1  UNL1        0.0376
     28 C         142.3103  139.9051  167.7241 C.2     1  UNL1        0.2490
     29 O         143.2130  138.7771  168.1277 O.2     1  UNL1       -0.2699
     30 N         141.1920  140.3312  168.6286 N.am    1  UNL1       -0.2760
     31 C         140.1208  141.3795  168.5695 C.3     1  UNL1        0.0955
     32 C         139.6107  140.9337  169.9078 C.3     1  UNL1        0.0430
     33 C         140.6820  139.8854  169.9670 C.3     1  UNL1        0.0955
@<TRIPOS>BOND
     1    18    19    1
     2    19    20    1
     3    19    17    1
     4    17     1    1
     5     1     2   ar
     6     2     3   ar
     7     3    21    1
     8    21    22    1
     9    22    23   ar
    10    23    24   ar
    11    24    25   ar
    12    25    28    1
    13    28    29    2
    14    28    30   am
    15    30    31    1
    16    31    32    1
    17    32    33    1
    18    25    26   ar
    19    26    27   ar
    20     3     4   ar
    21     4     5   ar
    22     5     7    1
    23     7     8    2
    24     7     9   am
    25     9    11    1
    26    11    12   ar
    27    12    13   ar
    28    13    14   ar
    29    14    15    1
    30    14    16   ar
    31     5     6   ar
    32     6     1   ar
    33    27    22   ar
    34    16    11   ar
    35    33    30    1
    36     9    10    1
@<TRIPOS>MOLECULE
*****
 33 36 0 0 0
SMALL
GASTEIGER

@<TRIPOS>ATOM
      1 C         137.9967  142.1896  161.9160 C.ar    1  UNL1        0.1416
      2 C         138.1648  141.1542  162.9883 C.ar    1  UNL1        0.0743
      3 C         138.4562  139.7304  162.6170 C.ar    1  UNL1        0.1485
      4 C         138.5796  139.3420  161.1735 C.ar    1  UNL1        0.0422
      5 C         138.4116  140.3773  160.1012 C.ar    1  UNL1        0.0597
      6 C         138.1201  141.8011  160.4725 C.ar    1  UNL1        0.0416
      7 C         138.5350  139.9889  158.6576 C.2     1  UNL1        0.2508
      8 O         137.4571  140.3656  157.6848 O.2     1  UNL1       -0.2698
      9 N         139.7362  139.2238  158.1868 N.am    1  UNL1       -0.2644
     10 H         140.4436  138.9766  158.8253 H       1  UNL1        0.1566
     11 C         139.8596  138.8353  156.7432 C.ar    1  UNL1        0.1557
     12 C         140.9099  139.3178  155.7871 C.ar    1  UNL1        0.0564
     13 C         140.6538  138.6769  154.4552 C.ar    1  UNL1        0.0981
     14 N         139.4452  137.7984  154.5883 N.ar    1  UNL1       -0.2462
     15 C         138.8347  136.9679  153.4987 C.3     1  UNL1        0.1538
     16 N         138.9544  137.8964  156.0023 N.ar    1  UNL1       -0.1539
     17 O         137.7052  143.6134  162.2873 O.3     1  UNL1       -0.4791
     18 C         138.1835  144.3784  164.7236 C.3     1  UNL1        0.0472
     19 C         138.5791  144.3241  163.2778 C.3     1  UNL1        0.1661
     20 C         139.8487  144.9806  162.8224 C.3     1  UNL1        0.0472
     21 O         138.6243  138.6951  163.6893 O.3     1  UNL1       -0.4534
     22 C         139.0627  139.1038  165.0644 C.ar    1  UNL1        0.1453
     23 C         140.4794  139.5359  165.3024 C.ar    1  UNL1        0.0376
     24 C         140.9178  139.9447  166.6775 C.ar    1  UNL1        0.0076
     25 C         139.9396  139.9214  167.8144 C.ar    1  UNL1        0.0538
     26 C         138.5230  139.4893  167.5764 C.ar    1  UNL1        0.0076
     27 C         138.0846  139.0805  166.2013 C.ar    1  UNL1        0.0376
     28 C         140.3780  140.3301  169.1895 C.2     1  UNL1        0.2490
     29 O         140.6580  139.2855  170.2289 O.2     1  UNL1       -0.2699
     30 N         140.5363  141.7835  169.5251 N.am    1  UNL1       -0.2760
     31 C         140.3550  143.0708  168.7767 C.3     1  UNL1        0.0955
     32 C         140.7603  143.8389  169.9998 C.3     1  UNL1        0.0430
     33 C         140.9416  142.5516  170.7481 C.3     1  UNL1        0.0955
@<TRIPOS>BOND
     1    18    19    1
     2    19    20    1
     3    19    17    1
     4    17     1    1
     5     1     2   ar
     6     2     3   ar
     7     3    21    1
     8    21    22    1
     9    22    23   ar
    10    23    24   ar
    11    24    25   ar
    12    25    28    1
    13    28    29    2
    14    28    30   am
    15    30    31    1
    16    31    32    1
    17    32    33    1
    18    25    26   ar
    19    26    27   ar
    20     3     4   ar
    21     4     5   ar
    22     5     7    1
    23     7     8    2
    24     7     9   am
    25     9    11    1
    26    11    12   ar
    27    12    13   ar
    28    13    14   ar
    29    14    15    1
    30    14    16   ar
    31     5     6   ar
    32     6     1   ar
    33    27    22   ar
    34    16    11   ar
    35    33    30    1
    36     9    10    1
@<TRIPOS>MOLECULE
*****
 33 36 0 0 0
SMALL
GASTEIGER

@<TRIPOS>ATOM
      1 C         141.2375  138.1493  161.5630 C.ar    1  UNL1        0.1416
      2 C         142.1732  138.5051  162.6801 C.ar    1  UNL1        0.0743
      3 C         143.4610  139.2143  162.3826 C.ar    1  UNL1        0.1485
      4 C         143.8132  139.5677  160.9680 C.ar    1  UNL1        0.0422
      5 C         142.8776  139.2119  159.8510 C.ar    1  UNL1        0.0597
      6 C         141.5897  138.5027  160.1484 C.ar    1  UNL1        0.0416
      7 C         143.2297  139.5653  158.4363 C.2     1  UNL1        0.2508
      8 O         142.3221  139.1584  157.3135 O.2     1  UNL1       -0.2698
      9 N         144.4894  140.3255  158.1446 N.am    1  UNL1       -0.2644
     10 H         145.0851  140.5925  158.8815 H       1  UNL1        0.1566
     11 C         144.8416  140.6789  156.7299 C.ar    1  UNL1        0.1557
     12 C         145.3708  139.7350  155.6910 C.ar    1  UNL1        0.0564
     13 C         145.5827  140.5110  154.4248 C.ar    1  UNL1        0.0981
     14 N         145.1844  141.9343  154.6813 N.ar    1  UNL1       -0.2462
     15 C         145.2353  143.0567  153.6876 C.3     1  UNL1        0.1538
     16 N         144.7265  142.0380  156.1059 N.ar    1  UNL1       -0.1539
     17 O         139.9497  137.4400  161.8605 O.3     1  UNL1       -0.4791
     18 C         138.8431  137.7622  164.1889 C.3     1  UNL1        0.0472
     19 C         138.9160  138.0948  162.7280 C.3     1  UNL1        0.1661
     20 C         137.9551  139.0821  162.1348 C.3     1  UNL1        0.0472
     21 O         144.3967  139.5701  163.4998 O.3     1  UNL1       -0.4534
     22 C         143.8817  139.6751  164.9047 C.ar    1  UNL1        0.1453
     23 C         143.3600  140.9851  165.4163 C.ar    1  UNL1        0.0376
     24 C         142.8449  141.0901  166.8212 C.ar    1  UNL1        0.0076
     25 C         142.8516  139.8850  167.7145 C.ar    1  UNL1        0.0538
     26 C         143.3733  138.5751  167.2028 C.ar    1  UNL1        0.0076
     27 C         143.8883  138.4701  165.7979 C.ar    1  UNL1        0.0376
     28 C         142.3366  139.9900  169.1194 C.2     1  UNL1        0.2490
     29 O         143.2971  140.0003  170.2715 O.2     1  UNL1       -0.2699
     30 N         140.8611  140.0848  169.3722 N.am    1  UNL1       -0.2760
     31 C         139.6358  140.1047  168.5070 C.3     1  UNL1        0.0955
     32 C         138.7744  140.2187  169.7297 C.3     1  UNL1        0.0430
     33 C         139.9996  140.1988  170.5948 C.3     1  UNL1        0.0955
@<TRIPOS>BOND
     1    18    19    1
     2    19    20    1
     3    19    17    1
     4    17     1    1
     5     1     2   ar
     6     2     3   ar
     7     3    21    1
     8    21    22    1
     9    22    23   ar
    10    23    24   ar
    11    24    25   ar
    12    25    28    1
    13    28    29    2
    14    28    30   am
    15    30    31    1
    16    31    32    1
    17    32    33    1
    18    25    26   ar
    19    26    27   ar
    20     3     4   ar
    21     4     5   ar
    22     5     7    1
    23     7     8    2
    24     7     9   am
    25     9    11    1
    26    11    12   ar
    27    12    13   ar
    28    13    14   ar
    29    14    15    1
    30    14    16   ar
    31     5     6   ar
    32     6     1   ar
    33    27    22   ar
    34    16    11   ar
    35    33    30    1
    36     9    10    1
@<TRIPOS>MOLECULE
*****
 33 36 0 0 0
SMALL
GASTEIGER

@<TRIPOS>ATOM
      1 C         140.4280  138.3874  161.4492 C.ar    1  UNL1        0.1416
      2 C         139.6402  138.8889  162.6230 C.ar    1  UNL1        0.0743
      3 C         138.4786  139.8131  162.4069 C.ar    1  UNL1        0.1485
      4 C         138.1049  140.2358  161.0171 C.ar    1  UNL1        0.0422
      5 C         138.8928  139.7344  159.8434 C.ar    1  UNL1        0.0597
      6 C         140.0544  138.8102  160.0594 C.ar    1  UNL1        0.0416
      7 C         138.5192  140.1571  158.4535 C.2     1  UNL1        0.2508
      8 O         139.5645  140.2096  157.3790 O.2     1  UNL1       -0.2698
      9 N         137.1002  140.5274  158.1381 N.am    1  UNL1       -0.2644
     10 H         136.4142  140.4930  158.8434 H       1  UNL1        0.1566
     11 C         136.7266  140.9501  156.7482 C.ar    1  UNL1        0.1557
     12 C         136.8064  142.3438  156.1992 C.ar    1  UNL1        0.0564
     13 C         136.3366  142.3084  154.7750 C.ar    1  UNL1        0.0981
     14 N         135.9666  140.8930  154.4440 N.ar    1  UNL1       -0.2462
     15 C         135.4468  140.4030  153.1250 C.3     1  UNL1        0.1538
     16 N         136.2076  140.0535  155.6635 N.ar    1  UNL1       -0.1539
     17 O         141.5896  137.4633  161.6653 O.3     1  UNL1       -0.4791
     18 C         144.0347  138.0565  161.0175 C.3     1  UNL1        0.0472
     19 C         142.9326  138.0201  162.0344 C.3     1  UNL1        0.1661
     20 C         143.1735  138.5407  163.4204 C.3     1  UNL1        0.0472
     21 O         137.6907  140.3145  163.5808 O.3     1  UNL1       -0.4534
     22 C         138.3168  140.3520  164.9434 C.ar    1  UNL1        0.1453
     23 C         139.1966  141.5027  165.3331 C.ar    1  UNL1        0.0376
     24 C         139.8227  141.5402  166.6957 C.ar    1  UNL1        0.0076
     25 C         139.5689  140.4270  167.6686 C.ar    1  UNL1        0.0538
     26 C         138.6891  139.2763  167.2788 C.ar    1  UNL1        0.0076
     27 C         138.0631  139.2388  165.9162 C.ar    1  UNL1        0.0376
     28 C         140.1950  140.4645  169.0311 C.2     1  UNL1        0.2490
     29 O         139.4778  139.8623  170.2029 O.2     1  UNL1       -0.2699
     30 N         141.5383  141.1041  169.2220 N.am    1  UNL1       -0.2760
     31 C         142.5254  141.7870  168.3223 C.3     1  UNL1        0.0955
     32 C         143.4380  142.0088  169.4919 C.3     1  UNL1        0.0430
     33 C         142.4509  141.3259  170.3916 C.3     1  UNL1        0.0955
@<TRIPOS>BOND
     1    18    19    1
     2    19    20    1
     3    19    17    1
     4    17     1    1
     5     1     2   ar
     6     2     3   ar
     7     3    21    1
     8    21    22    1
     9    22    23   ar
    10    23    24   ar
    11    24    25   ar
    12    25    28    1
    13    28    29    2
    14    28    30   am
    15    30    31    1
    16    31    32    1
    17    32    33    1
    18    25    26   ar
    19    26    27   ar
    20     3     4   ar
    21     4     5   ar
    22     5     7    1
    23     7     8    2
    24     7     9   am
    25     9    11    1
    26    11    12   ar
    27    12    13   ar
    28    13    14   ar
    29    14    15    1
    30    14    16   ar
    31     5     6   ar
    32     6     1   ar
    33    27    22   ar
    34    16    11   ar
    35    33    30    1
    36     9    10    1
@<TRIPOS>MOLECULE
*****
 33 36 0 0 0
SMALL
GASTEIGER

@<TRIPOS>ATOM
      1 C         143.4130  142.3365  161.8648 C.ar    1  UNL1        0.1416
      2 C         142.2199  141.4704  162.1410 C.ar    1  UNL1        0.0743
      3 C         141.7529  140.4861  161.1099 C.ar    1  UNL1        0.1485
      4 C         142.4789  140.3679  159.8027 C.ar    1  UNL1        0.0422
      5 C         143.6721  141.2340  159.5266 C.ar    1  UNL1        0.0597
      6 C         144.1391  142.2183  160.5577 C.ar    1  UNL1        0.0416
      7 C         144.3982  141.1159  158.2193 C.2     1  UNL1        0.2508
      8 O         144.3468  139.8315  157.4463 O.2     1  UNL1       -0.2698
      9 N         145.1758  142.2821  157.6853 N.am    1  UNL1       -0.2644
     10 H         145.2095  143.1251  158.1927 H       1  UNL1        0.1566
     11 C         145.9019  142.1640  156.3780 C.ar    1  UNL1        0.1557
     12 C         147.3885  142.2245  156.1867 C.ar    1  UNL1        0.0564
     13 C         147.6744  142.0625  154.7230 C.ar    1  UNL1        0.0981
     14 N         146.3645  141.9019  154.0099 N.ar    1  UNL1       -0.2462
     15 C         146.1820  141.7119  152.5333 C.3     1  UNL1        0.1538
     16 N         145.2691  141.9646  155.0328 N.ar    1  UNL1       -0.1539
     17 O         143.8800  143.3207  162.8959 O.3     1  UNL1       -0.4791
     18 C         145.6560  141.7289  163.9264 C.3     1  UNL1        0.0472
     19 C         144.6693  142.8481  164.0806 C.3     1  UNL1        0.1661
     20 C         144.4720  143.4948  165.4197 C.3     1  UNL1        0.0472
     21 O         140.5597  139.6200  161.3861 O.3     1  UNL1       -0.4534
     22 C         140.0283  139.4988  162.7835 C.ar    1  UNL1        0.1453
     23 C         138.8415  140.3122  163.2078 C.ar    1  UNL1        0.0376
     24 C         138.3101  140.1910  164.6053 C.ar    1  UNL1        0.0076
     25 C         138.9655  139.2564  165.5785 C.ar    1  UNL1        0.0538
     26 C         140.1521  138.4430  165.1542 C.ar    1  UNL1        0.0076
     27 C         140.6836  138.5642  163.7567 C.ar    1  UNL1        0.0376
     28 C         138.4340  139.1352  166.9759 C.2     1  UNL1        0.2490
     29 O         137.2827  138.2178  167.2636 O.2     1  UNL1       -0.2699
     30 N         139.0541  139.9313  168.0858 N.am    1  UNL1       -0.2760
     31 C         140.1795  140.9183  168.1827 C.3     1  UNL1        0.0955
     32 C         139.9309  141.0572  169.6554 C.3     1  UNL1        0.0430
     33 C         138.8055  140.0703  169.5585 C.3     1  UNL1        0.0955
@<TRIPOS>BOND
     1    18    19    1
     2    19    20    1
     3    19    17    1
     4    17     1    1
     5     1     2   ar
     6     2     3   ar
     7     3    21    1
     8    21    22    1
     9    22    23   ar
    10    23    24   ar
    11    24    25   ar
    12    25    28    1
    13    28    29    2
    14    28    30   am
    15    30    31    1
    16    31    32    1
    17    32    33    1
    18    25    26   ar
    19    26    27   ar
    20     3     4   ar
    21     4     5   ar
    22     5     7    1
    23     7     8    2
    24     7     9   am
    25     9    11    1
    26    11    12   ar
    27    12    13   ar
    28    13    14   ar
    29    14    15    1
    30    14    16   ar
    31     5     6   ar
    32     6     1   ar
    33    27    22   ar
    34    16    11   ar
    35    33    30    1
    36     9    10    1
@<TRIPOS>MOLECULE
*****
 33 36 0 0 0
SMALL
GASTEIGER

@<TRIPOS>ATOM
      1 C         142.5143  140.2426  159.4048 C.ar    1  UNL1        0.1416
      2 C         141.1591  140.2382  160.0476 C.ar    1  UNL1        0.0743
      3 C         140.1486  139.1995  159.6603 C.ar    1  UNL1        0.1485
      4 C         140.4933  138.1652  158.6301 C.ar    1  UNL1        0.0422
      5 C         141.8486  138.1696  157.9873 C.ar    1  UNL1        0.0597
      6 C         142.8590  139.2083  158.3746 C.ar    1  UNL1        0.0416
      7 C         142.1933  137.1353  156.9570 C.2     1  UNL1        0.2508
      8 O         143.6202  136.9416  156.5370 O.2     1  UNL1       -0.2698
      9 N         141.1112  136.2946  156.3469 N.am    1  UNL1       -0.2644
     10 H         140.1747  136.4217  156.6226 H       1  UNL1        0.1566
     11 C         141.4560  135.2603  155.3166 C.ar    1  UNL1        0.1557
     12 C         141.3978  135.4441  153.8291 C.ar    1  UNL1        0.0564
     13 C         141.8254  134.1580  153.1861 C.ar    1  UNL1        0.0981
     14 N         142.1477  133.1794  154.2764 N.ar    1  UNL1       -0.2462
     15 C         142.6161  131.7676  154.0838 C.3     1  UNL1        0.1538
     16 N         141.9194  133.8607  155.5931 N.ar    1  UNL1       -0.1539
     17 O         143.5248  141.2813  159.7921 O.3     1  UNL1       -0.4791
     18 C         144.5212  140.5473  162.0764 C.3     1  UNL1        0.0472
     19 C         143.7963  141.5602  161.2407 C.3     1  UNL1        0.1661
     20 C         143.3428  142.8520  161.8536 C.3     1  UNL1        0.0472
     21 O         138.7934  139.1952  160.3033 O.3     1  UNL1       -0.4534
     22 C         138.6724  139.1572  161.7979 C.ar    1  UNL1        0.1453
     23 C         138.0934  140.3292  162.5336 C.ar    1  UNL1        0.0376
     24 C         137.9725  140.2912  164.0282 C.ar    1  UNL1        0.0076
     25 C         138.4306  139.0812  164.7872 C.ar    1  UNL1        0.0538
     26 C         139.0097  137.9093  164.0515 C.ar    1  UNL1        0.0076
     27 C         139.1306  137.9473  162.5569 C.ar    1  UNL1        0.0376
     28 C         138.3097  139.0432  166.2818 C.2     1  UNL1        0.2490
     29 O         137.2733  138.1729  166.9285 O.2     1  UNL1       -0.2699
     30 N         139.2253  139.8756  167.1297 N.am    1  UNL1       -0.2760
     31 C         140.3453  140.8349  166.8551 C.3     1  UNL1        0.0955
     32 C         140.5201  141.0526  168.3289 C.3     1  UNL1        0.0430
     33 C         139.4002  140.0933  168.6035 C.3     1  UNL1        0.0955
@<TRIPOS>BOND
     1    18    19    1
     2    19    20    1
     3    19    17    1
     4    17     1    1
     5     1     2   ar
     6     2     3   ar
     7     3    21    1
     8    21    22    1
     9    22    23   ar
    10    23    24   ar
    11    24    25   ar
    12    25    28    1
    13    28    29    2
    14    28    30   am
    15    30    31    1
    16    31    32    1
    17    32    33    1
    18    25    26   ar
    19    26    27   ar
    20     3     4   ar
    21     4     5   ar
    22     5     7    1
    23     7     8    2
    24     7     9   am
    25     9    11    1
    26    11    12   ar
    27    12    13   ar
    28    13    14   ar
    29    14    15    1
    30    14    16   ar
    31     5     6   ar
    32     6     1   ar
    33    27    22   ar
    34    16    11   ar
    35    33    30    1
    36     9    10    1
@<TRIPOS>MOLECULE
*****
 33 36 0 0 0
SMALL
GASTEIGER

@<TRIPOS>ATOM
      1 C         140.7562  142.3542  161.2051 C.ar    1  UNL1        0.1416
      2 C         141.6963  142.5299  162.3606 C.ar    1  UNL1        0.0743
      3 C         142.9719  141.7426  162.4161 C.ar    1  UNL1        0.1485
      4 C         143.3073  140.7795  161.3162 C.ar    1  UNL1        0.0422
      5 C         142.3672  140.6038  160.1607 C.ar    1  UNL1        0.0597
      6 C         141.0916  141.3911  160.1051 C.ar    1  UNL1        0.0416
      7 C         142.7026  139.6407  159.0606 C.2     1  UNL1        0.2508
      8 O         144.0613  139.6708  158.4258 O.2     1  UNL1       -0.2698
      9 N         141.6793  138.6475  158.5955 N.am    1  UNL1       -0.2644
     10 H         140.7875  138.6277  159.0121 H       1  UNL1        0.1566
     11 C         142.0147  137.6844  157.4954 C.ar    1  UNL1        0.1557
     12 C         141.5386  137.7674  156.0754 C.ar    1  UNL1        0.0564
     13 C         142.1147  136.6035  155.3246 C.ar    1  UNL1        0.0981
     14 N         142.9468  135.8013  156.2807 N.ar    1  UNL1       -0.2462
     15 C         143.7072  134.5507  155.9528 C.3     1  UNL1        0.1538
     16 N         142.8850  136.4693  157.6223 N.ar    1  UNL1       -0.1539
     17 O         139.4806  143.1415  161.1495 O.3     1  UNL1       -0.4791
     18 C         138.4984  144.5251  163.1169 C.3     1  UNL1        0.0472
     19 C         138.6024  143.2331  162.3621 C.3     1  UNL1        0.1661
     20 C         137.8281  142.0326  162.8198 C.3     1  UNL1        0.0472
     21 O         143.9120  141.9184  163.5717 O.3     1  UNL1       -0.4534
     22 C         143.4997  141.4836  164.9468 C.ar    1  UNL1        0.1453
     23 C         143.3687  142.4961  166.0458 C.ar    1  UNL1        0.0376
     24 C         142.9563  142.0614  167.4209 C.ar    1  UNL1        0.0076
     25 C         142.6751  140.6140  167.6971 C.ar    1  UNL1        0.0538
     26 C         142.8061  139.6016  166.5981 C.ar    1  UNL1        0.0076
     27 C         143.2184  140.0364  165.2230 C.ar    1  UNL1        0.0376
     28 C         142.2628  140.1792  169.0722 C.2     1  UNL1        0.2490
     29 O         143.2953  139.6965  170.0472 O.2     1  UNL1       -0.2699
     30 N         140.8178  140.2272  169.4722 N.am    1  UNL1       -0.2760
     31 C         139.5429  140.6358  168.7957 C.3     1  UNL1        0.0955
     32 C         138.7745  140.2951  170.0380 C.3     1  UNL1        0.0430
     33 C         140.0494  139.8866  170.7146 C.3     1  UNL1        0.0955
@<TRIPOS>BOND
     1    18    19    1
     2    19    20    1
     3    19    17    1
     4    17     1    1
     5     1     2   ar
     6     2     3   ar
     7     3    21    1
     8    21    22    1
     9    22    23   ar
    10    23    24   ar
    11    24    25   ar
    12    25    28    1
    13    28    29    2
    14    28    30   am
    15    30    31    1
    16    31    32    1
    17    32    33    1
    18    25    26   ar
    19    26    27   ar
    20     3     4   ar
    21     4     5   ar
    22     5     7    1
    23     7     8    2
    24     7     9   am
    25     9    11    1
    26    11    12   ar
    27    12    13   ar
    28    13    14   ar
    29    14    15    1
    30    14    16   ar
    31     5     6   ar
    32     6     1   ar
    33    27    22   ar
    34    16    11   ar
    35    33    30    1
    36     9    10    1
