@<TRIPOS>MOLECULE
*****
 35 39 0 0 0
SMALL
GASTEIGER

@<TRIPOS>ATOM
      1 C         143.2232  143.2820  160.4198 C.ar    1  UNL1        0.1633
      2 N         142.4311  144.4008  159.8110 N.ar    1  UNL1       -0.2297
      3 C         142.1464  144.4032  158.3382 C.ar    1  UNL1        0.0756
      4 C         142.6539  143.2869  157.4743 C.ar    1  UNL1        0.0258
      5 C         143.4461  142.1681  158.0833 C.ar    1  UNL1        0.1306
      6 N         143.7308  142.1657  159.5560 N.ar    1  UNL1       -0.2122
      7 C         142.3692  143.2893  156.0016 C.3     1  UNL1        0.0478
      8 C         141.5771  144.4081  155.3928 C.3     1  UNL1        0.0774
      9 N         141.0695  145.5244  156.2566 N.3     1  UNL1       -0.2643
     10 C         141.3542  145.5220  157.7293 C.3     1  UNL1        0.1186
     11 N         143.9536  141.0517  157.2195 N.pl3   1  UNL1       -0.2900
     12 C         143.1065  139.8350  156.9919 C.3     1  UNL1        0.1242
     13 C         143.6141  138.7186  156.1281 C.3     1  UNL1        0.1636
     14 O         144.9687  138.8190  155.4918 O.3     1  UNL1       -0.3502
     15 C         145.8158  140.0359  155.7194 C.3     1  UNL1        0.1618
     16 C         145.3083  141.1522  156.5832 C.3     1  UNL1        0.1038
     17 C         146.1554  142.3690  156.8107 C.3     1  UNL1        0.0241
     18 C         144.0773  143.2748  164.8380 C.ar    1  UNL1        0.0516
     19 C         143.3892  144.4499  164.2091 C.ar    1  UNL1        0.0148
     20 C         143.1045  144.4523  162.7364 C.ar    1  UNL1        0.0043
     21 C         143.5079  143.2796  161.8926 C.ar    1  UNL1        0.0359
     22 C         144.1960  142.1045  162.5215 C.ar    1  UNL1        0.0043
     23 C         144.4807  142.1021  163.9942 C.ar    1  UNL1        0.0148
     24 N         143.6864  142.6153  168.7319 N.am    1  UNL1       -0.2887
     25 C         143.4017  142.6177  167.2592 C.2     1  UNL1        0.3045
     26 O         142.1568  141.9656  166.7348 O.2     1  UNL1       -0.2525
     27 N         144.3620  143.2723  166.3108 N.am    1  UNL1       -0.2683
     28 H         144.5034  143.0433  169.0761 H       1  UNL1        0.1510
     29 H         145.1790  143.7003  166.6550 H       1  UNL1        0.1564
     30 C         142.9723  140.5565  170.1466 C.3     1  UNL1        0.0230
     31 C         142.7261  141.9607  169.6803 C.3     1  UNL1        0.0910
     32 C         140.2773  146.6432  155.6476 C.3     1  UNL1        0.1175
     33 C         140.3445  147.4132  154.3621 C.3     1  UNL1        0.1606
     34 O         139.1569  148.2254  154.7865 O.3     1  UNL1       -0.3507
     35 C         139.0897  147.4553  156.0720 C.3     1  UNL1        0.1606
@<TRIPOS>BOND
     1    30    31    1
     2    31    24    1
     3    24    25   am
     4    25    26    2
     5    25    27   am
     6    27    18    1
     7    18    19   ar
     8    19    20   ar
     9    20    21   ar
    10    21     1    1
    11     1     2   ar
    12     2     3   ar
    13     3     4   ar
    14     4     5   ar
    15     5    11    1
    16    11    12    1
    17    12    13    1
    18    13    14    1
    19    14    15    1
    20    15    16    1
    21    16    17    1
    22     5     6   ar
    23     4     7    1
    24     7     8    1
    25     8     9    1
    26     9    32    1
    27    32    33    1
    28    33    34    1
    29    34    35    1
    30     9    10    1
    31    21    22   ar
    32    22    23   ar
    33    23    18   ar
    34     6     1   ar
    35    35    32    1
    36    10     3    1
    37    16    11    1
    38    24    28    1
    39    27    29    1
@<TRIPOS>MOLECULE
*****
 35 39 0 0 0
SMALL
GASTEIGER

@<TRIPOS>ATOM
      1 C         141.1385  138.8456  160.0205 C.ar    1  UNL1        0.1633
      2 N         140.3074  138.2126  161.0968 N.ar    1  UNL1       -0.2297
      3 C         140.1697  138.8846  162.4308 C.ar    1  UNL1        0.0756
      4 C         140.8631  140.1896  162.6884 C.ar    1  UNL1        0.0258
      5 C         141.6942  140.8225  161.6119 C.ar    1  UNL1        0.1306
      6 N         141.8319  140.1505  160.2780 N.ar    1  UNL1       -0.2122
      7 C         140.7254  140.8616  164.0223 C.3     1  UNL1        0.0478
      8 C         139.8943  140.2286  165.0987 C.3     1  UNL1        0.0774
      9 N         139.2009  138.9237  164.8411 N.3     1  UNL1       -0.2643
     10 C         139.3386  138.2517  163.5072 C.3     1  UNL1        0.1186
     11 N         142.3876  142.1275  161.8695 N.pl3   1  UNL1       -0.2900
     12 C         141.6376  143.4177  161.7192 C.3     1  UNL1        0.1242
     13 C         142.3310  144.7227  161.9768 C.3     1  UNL1        0.1636
     14 O         143.7744  144.7373  162.3846 O.3     1  UNL1       -0.3502
     15 C         144.5245  143.4470  162.5349 C.3     1  UNL1        0.1618
     16 C         143.8311  142.1421  162.2773 C.3     1  UNL1        0.1038
     17 C         144.5811  140.8518  162.4276 C.3     1  UNL1        0.0241
     18 C         141.5516  136.8297  156.0185 C.ar    1  UNL1        0.0516
     19 C         140.2149  137.3428  156.4654 C.ar    1  UNL1        0.0148
     20 C         140.0772  138.0148  157.7993 C.ar    1  UNL1        0.0043
     21 C         141.2763  138.1736  158.6864 C.ar    1  UNL1        0.0359
     22 C         142.6130  137.6604  158.2396 C.ar    1  UNL1        0.0043
     23 C         142.7507  136.9885  156.9057 C.ar    1  UNL1        0.0148
     24 N         141.8341  133.9883  153.2623 N.am    1  UNL1       -0.2887
     25 C         141.6963  134.6603  154.5962 C.2     1  UNL1        0.3045
     26 O         141.5656  133.8349  155.8419 O.2     1  UNL1       -0.2525
     27 N         141.6894  136.1577  154.6845 N.am    1  UNL1       -0.2683
     28 H         141.9199  134.5300  152.4447 H       1  UNL1        0.1510
     29 H         141.7752  136.6994  153.8670 H       1  UNL1        0.1564
     30 C         143.1064  131.7299  153.4378 C.3     1  UNL1        0.0230
     31 C         141.8410  132.4909  153.1740 C.3     1  UNL1        0.0910
     32 C         138.3698  138.2908  165.9176 C.3     1  UNL1        0.1175
     33 C         137.7125  138.7781  167.1747 C.3     1  UNL1        0.1606
     34 O         137.1944  137.3956  167.4398 O.3     1  UNL1       -0.3507
     35 C         137.8517  136.9082  166.1827 C.3     1  UNL1        0.1606
@<TRIPOS>BOND
     1    30    31    1
     2    31    24    1
     3    24    25   am
     4    25    26    2
     5    25    27   am
     6    27    18    1
     7    18    19   ar
     8    19    20   ar
     9    20    21   ar
    10    21     1    1
    11     1     2   ar
    12     2     3   ar
    13     3     4   ar
    14     4     5   ar
    15     5    11    1
    16    11    12    1
    17    12    13    1
    18    13    14    1
    19    14    15    1
    20    15    16    1
    21    16    17    1
    22     5     6   ar
    23     4     7    1
    24     7     8    1
    25     8     9    1
    26     9    32    1
    27    32    33    1
    28    33    34    1
    29    34    35    1
    30     9    10    1
    31    21    22   ar
    32    22    23   ar
    33    23    18   ar
    34     6     1   ar
    35    35    32    1
    36    10     3    1
    37    16    11    1
    38    24    28    1
    39    27    29    1
@<TRIPOS>MOLECULE
*****
 35 39 0 0 0
SMALL
GASTEIGER

@<TRIPOS>ATOM
      1 C         138.9927  139.4752  159.7593 C.ar    1  UNL1        0.1633
      2 N         139.6304  138.3437  159.0091 N.ar    1  UNL1       -0.2297
      3 C         139.8383  138.4490  157.5273 C.ar    1  UNL1        0.0756
      4 C         139.4084  139.6860  156.7957 C.ar    1  UNL1        0.0258
      5 C         138.7706  140.8175  157.5460 C.ar    1  UNL1        0.1306
      6 N         138.5628  140.7121  159.0278 N.ar    1  UNL1       -0.2122
      7 C         139.6162  139.7914  155.3140 C.3     1  UNL1        0.0478
      8 C         140.2540  138.6599  154.5638 C.3     1  UNL1        0.0774
      9 N         140.6839  137.4229  155.2953 N.3     1  UNL1       -0.2643
     10 C         140.4761  137.3175  156.7771 C.3     1  UNL1        0.1186
     11 N         138.3407  142.0545  156.8145 N.pl3   1  UNL1       -0.2900
     12 C         139.2902  143.2060  156.6657 C.3     1  UNL1        0.1242
     13 C         138.8603  144.4430  155.9342 C.3     1  UNL1        0.1636
     14 O         137.4808  144.5283  155.3514 O.3     1  UNL1       -0.3502
     15 C         136.5311  143.3767  155.5002 C.3     1  UNL1        0.1618
     16 C         136.9611  142.1398  156.2317 C.3     1  UNL1        0.1038
     17 C         136.0115  140.9882  156.3805 C.3     1  UNL1        0.0241
     18 C         138.3692  139.1590  164.2047 C.ar    1  UNL1        0.0516
     19 C         138.9763  138.0142  163.4492 C.ar    1  UNL1        0.0148
     20 C         139.1842  138.1196  161.9675 C.ar    1  UNL1        0.0043
     21 C         138.7848  139.3698  161.2412 C.ar    1  UNL1        0.0359
     22 C         138.1777  140.5146  161.9966 C.ar    1  UNL1        0.0043
     23 C         137.9698  140.4092  163.4784 C.ar    1  UNL1        0.0148
     24 N         138.9514  139.5536  168.1105 N.am    1  UNL1       -0.2887
     25 C         139.1592  139.6589  166.6287 C.2     1  UNL1        0.3045
     26 O         140.3650  140.3696  166.0891 O.2     1  UNL1       -0.2525
     27 N         138.1613  139.0536  165.6865 N.am    1  UNL1       -0.2683
     28 H         138.1601  139.0871  168.4647 H       1  UNL1        0.1510
     29 H         137.3699  138.5871  166.0407 H       1  UNL1        0.1564
     30 C         139.5342  141.2671  169.9744 C.3     1  UNL1        0.0230
     31 C         139.9493  140.1589  169.0527 C.3     1  UNL1        0.0910
     32 C         141.3217  136.2914  154.5450 C.3     1  UNL1        0.1175
     33 C         141.6213  134.8532  154.8481 C.3     1  UNL1        0.1606
     34 O         142.2236  134.6912  153.4839 O.3     1  UNL1       -0.3507
     35 C         141.9240  136.1294  153.1808 C.3     1  UNL1        0.1606
@<TRIPOS>BOND
     1    30    31    1
     2    31    24    1
     3    24    25   am
     4    25    26    2
     5    25    27   am
     6    27    18    1
     7    18    19   ar
     8    19    20   ar
     9    20    21   ar
    10    21     1    1
    11     1     2   ar
    12     2     3   ar
    13     3     4   ar
    14     4     5   ar
    15     5    11    1
    16    11    12    1
    17    12    13    1
    18    13    14    1
    19    14    15    1
    20    15    16    1
    21    16    17    1
    22     5     6   ar
    23     4     7    1
    24     7     8    1
    25     8     9    1
    26     9    32    1
    27    32    33    1
    28    33    34    1
    29    34    35    1
    30     9    10    1
    31    21    22   ar
    32    22    23   ar
    33    23    18   ar
    34     6     1   ar
    35    35    32    1
    36    10     3    1
    37    16    11    1
    38    24    28    1
    39    27    29    1
@<TRIPOS>MOLECULE
*****
 35 39 0 0 0
SMALL
GASTEIGER

@<TRIPOS>ATOM
      1 C         142.7199  139.0253  161.1247 C.ar    1  UNL1        0.1633
      2 N         142.8484  137.8265  160.2325 N.ar    1  UNL1       -0.2297
      3 C         142.6639  137.9709  158.7508 C.ar    1  UNL1        0.0756
      4 C         142.3508  139.3143  158.1615 C.ar    1  UNL1        0.0258
      5 C         142.2223  140.5133  159.0538 C.ar    1  UNL1        0.1306
      6 N         142.4069  140.3687  160.5354 N.ar    1  UNL1       -0.2122
      7 C         142.1662  139.4588  156.6800 C.3     1  UNL1        0.0478
      8 C         142.2948  138.2600  155.7878 C.3     1  UNL1        0.0774
      9 N         142.6078  136.9166  156.3771 N.3     1  UNL1       -0.2643
     10 C         142.7924  136.7721  157.8586 C.3     1  UNL1        0.1186
     11 N         141.9092  141.8566  158.4645 N.pl3   1  UNL1       -0.2900
     12 C         140.4829  142.2647  158.2436 C.3     1  UNL1        0.1242
     13 C         140.1698  143.6081  157.6543 C.3     1  UNL1        0.1636
     14 O         141.2831  144.5434  157.2859 O.3     1  UNL1       -0.3502
     15 C         142.7096  144.1354  157.5069 C.3     1  UNL1        0.1618
     16 C         143.0226  142.7920  158.0962 C.3     1  UNL1        0.1038
     17 C         144.4490  142.3839  158.3172 C.3     1  UNL1        0.0241
     18 C         143.2735  138.5919  165.5694 C.ar    1  UNL1        0.0516
     19 C         142.0748  137.9873  164.9005 C.ar    1  UNL1        0.0148
     20 C         141.8903  138.1318  163.4189 C.ar    1  UNL1        0.0043
     21 C         142.9045  138.8809  162.6063 C.ar    1  UNL1        0.0359
     22 C         144.1032  139.4855  163.2753 C.ar    1  UNL1        0.0043
     23 C         144.2877  139.3410  164.7568 C.ar    1  UNL1        0.0148
     24 N         142.9142  139.2180  169.4719 N.am    1  UNL1       -0.2887
     25 C         142.7296  139.3624  167.9903 C.2     1  UNL1        0.3045
     26 O         141.8167  140.4219  167.4479 O.2     1  UNL1       -0.2525
     27 N         143.4581  138.4474  167.0510 N.am    1  UNL1       -0.2683
     28 H         143.5134  138.5226  169.8278 H       1  UNL1        0.1510
     29 H         144.0572  137.7521  167.4070 H       1  UNL1        0.1564
     30 C         140.7158  139.9502  170.6469 C.3     1  UNL1        0.0230
     31 C         142.1858  140.1330  170.4111 C.3     1  UNL1        0.0910
     32 C         142.7363  135.7177  155.4847 C.3     1  UNL1        0.1175
     33 C         142.3544  135.4036  154.0686 C.3     1  UNL1        0.1606
     34 O         142.9181  134.0221  154.2229 O.3     1  UNL1       -0.3507
     35 C         143.3001  134.3362  155.6391 C.3     1  UNL1        0.1606
@<TRIPOS>BOND
     1    30    31    1
     2    31    24    1
     3    24    25   am
     4    25    26    2
     5    25    27   am
     6    27    18    1
     7    18    19   ar
     8    19    20   ar
     9    20    21   ar
    10    21     1    1
    11     1     2   ar
    12     2     3   ar
    13     3     4   ar
    14     4     5   ar
    15     5    11    1
    16    11    12    1
    17    12    13    1
    18    13    14    1
    19    14    15    1
    20    15    16    1
    21    16    17    1
    22     5     6   ar
    23     4     7    1
    24     7     8    1
    25     8     9    1
    26     9    32    1
    27    32    33    1
    28    33    34    1
    29    34    35    1
    30     9    10    1
    31    21    22   ar
    32    22    23   ar
    33    23    18   ar
    34     6     1   ar
    35    35    32    1
    36    10     3    1
    37    16    11    1
    38    24    28    1
    39    27    29    1
@<TRIPOS>MOLECULE
*****
 35 39 0 0 0
SMALL
GASTEIGER

@<TRIPOS>ATOM
      1 C         143.3351  139.1681  159.9966 C.ar    1  UNL1        0.1633
      2 N         144.2227  140.1953  159.3586 N.ar    1  UNL1       -0.2297
      3 C         144.2128  140.3742  157.8693 C.ar    1  UNL1        0.0756
      4 C         143.3151  139.5258  157.0180 C.ar    1  UNL1        0.0258
      5 C         142.4275  138.4986  157.6561 C.ar    1  UNL1        0.1306
      6 N         142.4375  138.3198  159.1453 N.ar    1  UNL1       -0.2122
      7 C         143.3051  139.7047  155.5288 C.3     1  UNL1        0.0478
      8 C         144.1927  140.7318  154.8908 C.3     1  UNL1        0.0774
      9 N         145.0904  141.5801  155.7421 N.3     1  UNL1       -0.2643
     10 C         145.1004  141.4013  157.2313 C.3     1  UNL1        0.1186
     11 N         141.5299  137.6503  156.8048 N.pl3   1  UNL1       -0.2900
     12 C         140.1138  138.0757  156.5526 C.3     1  UNL1        0.1242
     13 C         139.2161  137.2273  155.7013 C.3     1  UNL1        0.1636
     14 O         139.7346  135.9537  155.1023 O.3     1  UNL1       -0.3502
     15 C         141.1508  135.5283  155.3545 C.3     1  UNL1        0.1618
     16 C         142.0485  136.3766  156.2057 C.3     1  UNL1        0.1038
     17 C         143.4646  135.9513  156.4579 C.3     1  UNL1        0.0241
     18 C         143.3651  138.6315  164.4644 C.ar    1  UNL1        0.0516
     19 C         144.4208  139.4663  163.8021 C.ar    1  UNL1        0.0148
     20 C         144.4108  139.6452  162.3129 C.ar    1  UNL1        0.0043
     21 C         143.3451  138.9892  161.4859 C.ar    1  UNL1        0.0359
     22 C         142.2894  138.1545  162.1481 C.ar    1  UNL1        0.0043
     23 C         142.2994  137.9756  163.6373 C.ar    1  UNL1        0.0148
     24 N         142.8811  139.3707  168.3334 N.am    1  UNL1       -0.2887
     25 C         142.8711  139.5495  166.8442 C.2     1  UNL1        0.3045
     26 O         142.3571  140.8252  166.2453 O.2     1  UNL1       -0.2525
     27 N         143.3751  138.4527  165.9537 N.am    1  UNL1       -0.2683
     28 H         143.2184  138.5334  168.7264 H       1  UNL1        0.1510
     29 H         143.7124  137.6154  166.3467 H       1  UNL1        0.1564
     30 C         143.2830  141.6010  169.6038 C.3     1  UNL1        0.0230
     31 C         142.3771  140.4675  169.2239 C.3     1  UNL1        0.0910
     32 C         145.9780  142.6073  155.1040 C.3     1  UNL1        0.1175
     33 C         145.8023  143.6431  154.0333 C.3     1  UNL1        0.1606
     34 O         147.2333  144.0600  154.2018 O.3     1  UNL1       -0.3507
     35 C         147.4090  143.0242  155.2724 C.3     1  UNL1        0.1606
@<TRIPOS>BOND
     1    30    31    1
     2    31    24    1
     3    24    25   am
     4    25    26    2
     5    25    27   am
     6    27    18    1
     7    18    19   ar
     8    19    20   ar
     9    20    21   ar
    10    21     1    1
    11     1     2   ar
    12     2     3   ar
    13     3     4   ar
    14     4     5   ar
    15     5    11    1
    16    11    12    1
    17    12    13    1
    18    13    14    1
    19    14    15    1
    20    15    16    1
    21    16    17    1
    22     5     6   ar
    23     4     7    1
    24     7     8    1
    25     8     9    1
    26     9    32    1
    27    32    33    1
    28    33    34    1
    29    34    35    1
    30     9    10    1
    31    21    22   ar
    32    22    23   ar
    33    23    18   ar
    34     6     1   ar
    35    35    32    1
    36    10     3    1
    37    16    11    1
    38    24    28    1
    39    27    29    1
@<TRIPOS>MOLECULE
*****
 35 39 0 0 0
SMALL
GASTEIGER

@<TRIPOS>ATOM
      1 C         140.0697  139.3084  163.4467 C.ar    1  UNL1        0.1633
      2 N         140.1342  138.4723  162.2031 N.ar    1  UNL1       -0.2297
      3 C         140.9784  138.9147  161.0448 C.ar    1  UNL1        0.0756
      4 C         141.7581  140.1933  161.1302 C.ar    1  UNL1        0.0258
      5 C         141.6936  141.0294  162.3740 C.ar    1  UNL1        0.1306
      6 N         140.8494  140.5869  163.5322 N.ar    1  UNL1       -0.2122
      7 C         142.6024  140.6357  159.9720 C.3     1  UNL1        0.0478
      8 C         142.6668  139.7996  158.7284 C.3     1  UNL1        0.0774
      9 N         141.8871  138.5211  158.6429 N.3     1  UNL1       -0.2643
     10 C         141.0429  138.0786  159.8011 C.3     1  UNL1        0.1186
     11 N         142.4734  142.3079  162.4594 N.pl3   1  UNL1       -0.2900
     12 C         141.8199  143.6102  162.1031 C.3     1  UNL1        0.1242
     13 C         142.5996  144.8888  162.1885 C.3     1  UNL1        0.1636
     14 O         144.0328  144.8651  162.6303 O.3     1  UNL1       -0.3502
     15 C         144.6864  143.5628  162.9867 C.3     1  UNL1        0.1618
     16 C         143.9067  142.2842  162.9012 C.3     1  UNL1        0.1038
     17 C         144.5602  140.9819  163.2576 C.3     1  UNL1        0.0241
     18 C         137.5370  137.9810  166.9215 C.ar    1  UNL1        0.0516
     19 C         138.1670  136.9612  166.0198 C.ar    1  UNL1        0.0148
     20 C         139.0112  137.4036  164.8616 C.ar    1  UNL1        0.0043
     21 C         139.2254  138.8659  164.6050 C.ar    1  UNL1        0.0359
     22 C         138.5954  139.8858  165.5067 C.ar    1  UNL1        0.0043
     23 C         137.7512  139.4433  166.6649 C.ar    1  UNL1        0.0148
     24 N         135.9689  137.7906  170.5622 N.am    1  UNL1       -0.2887
     25 C         136.8130  138.2330  169.4039 C.2     1  UNL1        0.3045
     26 O         137.7775  139.3698  169.5697 O.2     1  UNL1       -0.2525
     27 N         136.6928  137.5386  168.0798 N.am    1  UNL1       -0.2683
     28 H         135.3359  137.0445  170.4533 H       1  UNL1        0.1510
     29 H         136.0598  136.7924  167.9709 H       1  UNL1        0.1564
     30 C         135.5925  137.8143  173.1327 C.3     1  UNL1        0.0230
     31 C         136.0891  138.4850  171.8863 C.3     1  UNL1        0.0910
     32 C         141.9516  137.6849  157.3992 C.3     1  UNL1        0.1175
     33 C         142.8882  136.6387  156.8718 C.3     1  UNL1        0.1606
     34 O         142.0428  136.5026  155.6403 O.3     1  UNL1       -0.3507
     35 C         141.1062  137.5488  156.1676 C.3     1  UNL1        0.1606
@<TRIPOS>BOND
     1    30    31    1
     2    31    24    1
     3    24    25   am
     4    25    26    2
     5    25    27   am
     6    27    18    1
     7    18    19   ar
     8    19    20   ar
     9    20    21   ar
    10    21     1    1
    11     1     2   ar
    12     2     3   ar
    13     3     4   ar
    14     4     5   ar
    15     5    11    1
    16    11    12    1
    17    12    13    1
    18    13    14    1
    19    14    15    1
    20    15    16    1
    21    16    17    1
    22     5     6   ar
    23     4     7    1
    24     7     8    1
    25     8     9    1
    26     9    32    1
    27    32    33    1
    28    33    34    1
    29    34    35    1
    30     9    10    1
    31    21    22   ar
    32    22    23   ar
    33    23    18   ar
    34     6     1   ar
    35    35    32    1
    36    10     3    1
    37    16    11    1
    38    24    28    1
    39    27    29    1
@<TRIPOS>MOLECULE
*****
 35 39 0 0 0
SMALL
GASTEIGER

@<TRIPOS>ATOM
      1 C         139.1926  146.6372  155.7507 C.ar    1  UNL1        0.1633
      2 N         138.1316  145.6780  155.2989 N.ar    1  UNL1       -0.2297
      3 C         138.0686  144.2987  155.8852 C.ar    1  UNL1        0.0756
      4 C         139.0666  143.8787  156.9233 C.ar    1  UNL1        0.0258
      5 C         140.1276  144.8381  157.3751 C.ar    1  UNL1        0.1306
      6 N         140.1906  146.2173  156.7887 N.ar    1  UNL1       -0.2122
      7 C         139.0037  142.4996  157.5097 C.3     1  UNL1        0.0478
      8 C         137.9427  141.5403  157.0579 C.3     1  UNL1        0.0774
      9 N         136.9447  141.9602  156.0198 N.3     1  UNL1       -0.2643
     10 C         137.0076  143.3394  155.4335 C.3     1  UNL1        0.1186
     11 N         141.1256  144.4181  158.4132 N.pl3   1  UNL1       -0.2900
     12 C         140.8745  144.7206  159.8607 C.3     1  UNL1        0.1242
     13 C         141.8725  144.3007  160.8988 C.3     1  UNL1        0.1636
     14 O         143.1217  143.5783  160.4893 O.3     1  UNL1       -0.3502
     15 C         143.3729  143.2758  159.0417 C.3     1  UNL1        0.1618
     16 C         142.3749  143.6957  158.0037 C.3     1  UNL1        0.1038
     17 C         142.6260  143.3932  156.5561 C.3     1  UNL1        0.0241
     18 C         139.3815  150.7749  153.9918 C.ar    1  UNL1        0.0516
     19 C         138.7105  150.5522  155.3146 C.ar    1  UNL1        0.0148
     20 C         138.6475  149.1730  155.9009 C.ar    1  UNL1        0.0043
     21 C         139.2556  148.0165  155.1643 C.ar    1  UNL1        0.0359
     22 C         139.9267  148.2391  153.8414 C.ar    1  UNL1        0.0043
     23 C         139.9897  149.6183  153.2552 C.ar    1  UNL1        0.0148
     24 N         140.7206  154.3876  153.0402 N.am    1  UNL1       -0.2887
     25 C         140.6576  153.0084  153.6265 C.2     1  UNL1        0.3045
     26 O         141.8076  152.4834  154.4340 O.2     1  UNL1       -0.2525
     27 N         139.4446  152.1542  153.4054 N.am    1  UNL1       -0.2683
     28 H         139.9658  154.7322  152.5103 H       1  UNL1        0.1510
     29 H         138.6898  152.4987  152.8755 H       1  UNL1        0.1564
     30 C         141.9424  156.2617  154.3612 C.3     1  UNL1        0.0230
     31 C         141.9336  155.2418  153.2614 C.3     1  UNL1        0.0910
     32 C         135.8837  141.0009  155.5681 C.3     1  UNL1        0.1175
     33 C         134.5339  140.5939  156.0805 C.3     1  UNL1        0.1606
     34 O         134.3832  139.6442  154.9292 O.3     1  UNL1       -0.3507
     35 C         135.7330  140.0513  154.4168 C.3     1  UNL1        0.1606
@<TRIPOS>BOND
     1    30    31    1
     2    31    24    1
     3    24    25   am
     4    25    26    2
     5    25    27   am
     6    27    18    1
     7    18    19   ar
     8    19    20   ar
     9    20    21   ar
    10    21     1    1
    11     1     2   ar
    12     2     3   ar
    13     3     4   ar
    14     4     5   ar
    15     5    11    1
    16    11    12    1
    17    12    13    1
    18    13    14    1
    19    14    15    1
    20    15    16    1
    21    16    17    1
    22     5     6   ar
    23     4     7    1
    24     7     8    1
    25     8     9    1
    26     9    32    1
    27    32    33    1
    28    33    34    1
    29    34    35    1
    30     9    10    1
    31    21    22   ar
    32    22    23   ar
    33    23    18   ar
    34     6     1   ar
    35    35    32    1
    36    10     3    1
    37    16    11    1
    38    24    28    1
    39    27    29    1
@<TRIPOS>MOLECULE
*****
 35 39 0 0 0
SMALL
GASTEIGER

@<TRIPOS>ATOM
      1 C         143.8621  142.8719  160.3109 C.ar    1  UNL1        0.1633
      2 N         145.0923  142.5867  159.5015 N.ar    1  UNL1       -0.2297
      3 C         145.0178  142.5722  158.0034 C.ar    1  UNL1        0.0756
      4 C         143.7130  142.8429  157.3147 C.ar    1  UNL1        0.0258
      5 C         142.4827  143.1281  158.1242 C.ar    1  UNL1        0.1306
      6 N         142.5573  143.1426  159.6222 N.ar    1  UNL1       -0.2122
      7 C         143.6385  142.8284  155.8167 C.3     1  UNL1        0.0478
      8 C         144.8687  142.5432  155.0073 C.3     1  UNL1        0.0774
      9 N         146.1735  142.2725  155.6960 N.3     1  UNL1       -0.2643
     10 C         146.2480  142.2870  157.1940 C.3     1  UNL1        0.1186
     11 N         141.1780  143.3988  157.4355 N.pl3   1  UNL1       -0.2900
     12 C         140.2358  142.2689  157.1428 C.3     1  UNL1        0.1242
     13 C         138.9311  142.5396  156.4541 C.3     1  UNL1        0.1636
     14 O         138.5684  143.9401  156.0582 O.3     1  UNL1       -0.3502
     15 C         139.5105  145.0701  156.3509 C.3     1  UNL1        0.1618
     16 C         140.8153  144.7994  157.0395 C.3     1  UNL1        0.1038
     17 C         141.7574  145.9293  157.3322 C.3     1  UNL1        0.0241
     18 C         144.0855  142.9156  164.8051 C.ar    1  UNL1        0.0516
     19 C         143.7964  144.1827  164.0562 C.ar    1  UNL1        0.0148
     20 C         143.7219  144.1681  162.5582 C.ar    1  UNL1        0.0043
     21 C         143.9366  142.8864  161.8090 C.ar    1  UNL1        0.0359
     22 C         144.2257  141.6193  162.5579 C.ar    1  UNL1        0.0043
     23 C         144.3002  141.6339  164.0559 C.ar    1  UNL1        0.0148
     24 N         143.0206  142.6086  168.6159 N.am    1  UNL1       -0.2887
     25 C         142.9461  142.5941  167.1178 C.2     1  UNL1        0.3045
     26 O         141.6577  142.2435  166.4342 O.2     1  UNL1       -0.2525
     27 N         144.1601  142.9301  166.3032 N.am    1  UNL1       -0.2683
     28 H         143.8662  142.8387  169.0645 H       1  UNL1        0.1510
     29 H         145.0057  143.1602  166.7518 H       1  UNL1        0.1564
     30 C         140.7818  143.3289  169.7199 C.3     1  UNL1        0.0230
     31 C         141.8067  142.2726  169.4304 C.3     1  UNL1        0.0910
     32 C         147.4038  141.9873  154.8865 C.3     1  UNL1        0.1175
     33 C         147.6936  141.8024  153.4264 C.3     1  UNL1        0.1606
     34 O         149.1437  141.5839  153.7419 O.3     1  UNL1       -0.3507
     35 C         148.8539  141.7688  155.2020 C.3     1  UNL1        0.1606
@<TRIPOS>BOND
     1    30    31    1
     2    31    24    1
     3    24    25   am
     4    25    26    2
     5    25    27   am
     6    27    18    1
     7    18    19   ar
     8    19    20   ar
     9    20    21   ar
    10    21     1    1
    11     1     2   ar
    12     2     3   ar
    13     3     4   ar
    14     4     5   ar
    15     5    11    1
    16    11    12    1
    17    12    13    1
    18    13    14    1
    19    14    15    1
    20    15    16    1
    21    16    17    1
    22     5     6   ar
    23     4     7    1
    24     7     8    1
    25     8     9    1
    26     9    32    1
    27    32    33    1
    28    33    34    1
    29    34    35    1
    30     9    10    1
    31    21    22   ar
    32    22    23   ar
    33    23    18   ar
    34     6     1   ar
    35    35    32    1
    36    10     3    1
    37    16    11    1
    38    24    28    1
    39    27    29    1
@<TRIPOS>MOLECULE
*****
 35 39 0 0 0
SMALL
GASTEIGER

@<TRIPOS>ATOM
      1 C         138.8791  139.6821  160.0085 C.ar    1  UNL1        0.1633
      2 N         137.7251  140.1031  159.1478 N.ar    1  UNL1       -0.2297
      3 C         137.9034  140.2299  157.6637 C.ar    1  UNL1        0.0756
      4 C         139.2357  139.9355  157.0406 C.ar    1  UNL1        0.0258
      5 C         140.3897  139.5144  157.9015 C.ar    1  UNL1        0.1306
      6 N         140.2114  139.3877  159.3854 N.ar    1  UNL1       -0.2122
      7 C         139.4140  140.0623  155.5567 C.3     1  UNL1        0.0478
      8 C         138.2601  140.4834  154.6959 C.3     1  UNL1        0.0774
      9 N         136.9277  140.7777  155.3190 N.3     1  UNL1       -0.2643
     10 C         136.7494  140.6510  156.8030 C.3     1  UNL1        0.1186
     11 N         141.7220  139.2201  157.2783 N.pl3   1  UNL1       -0.2900
     12 C         142.0352  137.8343  156.7972 C.3     1  UNL1        0.1242
     13 C         143.3675  137.5400  156.1740 C.3     1  UNL1        0.1636
     14 O         144.3866  138.6314  156.0320 O.3     1  UNL1       -0.3502
     15 C         144.0735  140.0172  156.5132 C.3     1  UNL1        0.1618
     16 C         142.7411  140.3116  157.1363 C.3     1  UNL1        0.1038
     17 C         142.4279  141.6973  157.6174 C.3     1  UNL1        0.0241
     18 C         138.3442  139.3017  164.4604 C.ar    1  UNL1        0.0516
     19 C         139.0207  138.2068  163.6901 C.ar    1  UNL1        0.0148
     20 C         139.1989  138.3335  162.2061 C.ar    1  UNL1        0.0043
     21 C         138.7008  139.5553  161.4926 C.ar    1  UNL1        0.0359
     22 C         138.0244  140.6503  162.2629 C.ar    1  UNL1        0.0043
     23 C         137.8461  140.5235  163.7468 C.ar    1  UNL1        0.0148
     24 N         139.0086  139.6327  168.3590 N.am    1  UNL1       -0.2887
     25 C         139.1868  139.7595  166.8751 C.2     1  UNL1        0.3045
     26 O         140.3860  140.4707  166.3217 O.2     1  UNL1       -0.2525
     27 N         138.1660  139.1750  165.9444 N.am    1  UNL1       -0.2683
     28 H         138.2216  139.1659  168.7222 H       1  UNL1        0.1510
     29 H         137.3789  138.7081  166.3076 H       1  UNL1        0.1564
     30 C         139.7650  141.5310  169.9635 C.3     1  UNL1        0.0230
     31 C         140.0295  140.2173  169.2897 C.3     1  UNL1        0.0910
     32 C         135.7737  141.1988  154.4582 C.3     1  UNL1        0.1175
     33 C         134.2895  141.3011  154.6496 C.3     1  UNL1        0.1606
     34 O         134.1418  141.7943  153.2407 O.3     1  UNL1       -0.3507
     35 C         135.6260  141.6920  153.0493 C.3     1  UNL1        0.1606
@<TRIPOS>BOND
     1    30    31    1
     2    31    24    1
     3    24    25   am
     4    25    26    2
     5    25    27   am
     6    27    18    1
     7    18    19   ar
     8    19    20   ar
     9    20    21   ar
    10    21     1    1
    11     1     2   ar
    12     2     3   ar
    13     3     4   ar
    14     4     5   ar
    15     5    11    1
    16    11    12    1
    17    12    13    1
    18    13    14    1
    19    14    15    1
    20    15    16    1
    21    16    17    1
    22     5     6   ar
    23     4     7    1
    24     7     8    1
    25     8     9    1
    26     9    32    1
    27    32    33    1
    28    33    34    1
    29    34    35    1
    30     9    10    1
    31    21    22   ar
    32    22    23   ar
    33    23    18   ar
    34     6     1   ar
    35    35    32    1
    36    10     3    1
    37    16    11    1
    38    24    28    1
    39    27    29    1
