@<TRIPOS>MOLECULE
*****
 31 33 0 0 0
SMALL
GASTEIGER

@<TRIPOS>ATOM
      1 C         141.5558  137.8916  157.8194 C.3     1  UNL1        0.0019
      2 C         140.1169  138.1748  158.1343 C.3     1  UNL1        0.0018
      3 C         139.7247  138.6234  159.5109 C.3     1  UNL1        0.0198
      4 C         140.7714  138.7887  160.5725 C.3     1  UNL1        0.0757
      5 C         142.2104  138.5055  160.2575 C.3     1  UNL1        0.0198
      6 C         142.6025  138.0569  158.8810 C.3     1  UNL1        0.0018
      7 N         140.3792  139.2373  161.9491 N.am    1  UNL1       -0.2760
      8 C         139.8731  140.6323  162.1676 C.3     1  UNL1        0.1151
      9 C         140.4931  138.2908  163.1072 C.2     1  UNL1        0.2491
     10 O         140.9993  136.8958  162.8887 O.2     1  UNL1       -0.2699
     11 C         140.1009  138.7393  164.4838 C.ar    1  UNL1        0.0558
     12 C         141.0443  139.5746  165.2977 C.ar    1  UNL1        0.0047
     13 C         140.6521  140.0231  166.6743 C.ar    1  UNL1        0.0025
     14 C         139.3165  139.6364  167.2370 C.ar    1  UNL1        0.0296
     15 C         138.3731  138.8012  166.4231 C.ar    1  UNL1        0.1403
     16 F         137.0375  138.4146  166.9858 F       1  UNL1       -0.2042
     17 C         138.7653  138.3527  165.0465 C.ar    1  UNL1        0.0341
     18 C         141.1957  137.9470  155.2470 C.3     1  UNL1        0.0019
     19 C         141.9480  137.4430  156.4428 C.3     1  UNL1        0.0231
     20 C         143.0926  136.4905  156.2621 C.3     1  UNL1        0.1285
     21 N         144.3861  136.9747  155.6769 N.3     1  UNL1       -0.3150
     22 H         144.3107  137.9688  155.4614 H       1  UNL1        0.1192
     23 H         144.5879  136.4559  154.8221 H       1  UNL1        0.1192
     24 C         142.9436  135.0538  156.6666 C.2     1  UNL1        0.2397
     25 O         143.4066  134.6039  158.0206 O.2     1  UNL1       -0.2734
     26 N         142.3318  134.0668  155.7170 N.am    1  UNL1       -0.2756
     27 C         141.8255  134.3678  154.3375 C.3     1  UNL1        0.0964
     28 C         141.2996  133.0926  153.7482 C.3     1  UNL1        0.0585
     29 C         141.4809  132.0035  154.7635 C.3     1  UNL1        0.1824
     30 F         141.0924  130.5648  154.5921 F       1  UNL1       -0.2354
     31 C         142.1188  132.6056  155.9803 C.3     1  UNL1        0.1286
@<TRIPOS>BOND
     1    19    18    1
     2    19     1    1
     3     1     2    1
     4     2     3    1
     5     3     4    1
     6     4     7    1
     7     7     8    1
     8     7     9   am
     9     9    10    2
    10     9    11    1
    11    11    12   ar
    12    12    13   ar
    13    13    14   ar
    14    14    15   ar
    15    15    16    1
    16    15    17   ar
    17     4     5    1
    18     5     6    1
    19    19    20    1
    20    20    21    1
    21    20    24    1
    22    24    25    2
    23    24    26   am
    24    26    27    1
    25    27    28    1
    26    28    29    1
    27    29    30    1
    28    29    31    1
    29     6     1    1
    30    31    26    1
    31    17    11   ar
    32    21    22    1
    33    21    23    1
@<TRIPOS>MOLECULE
*****
 31 33 0 0 0
SMALL
GASTEIGER

@<TRIPOS>ATOM
      1 C         140.4341  142.6456  166.3920 C.3     1  UNL1        0.0019
      2 C         141.7017  143.0221  165.6841 C.3     1  UNL1        0.0018
      3 C         141.6482  143.5577  164.2840 C.3     1  UNL1        0.0198
      4 C         140.3269  143.7167  163.5919 C.3     1  UNL1        0.0757
      5 C         139.0593  143.3402  164.2999 C.3     1  UNL1        0.0198
      6 C         139.1128  142.8046  165.6999 C.3     1  UNL1        0.0018
      7 N         140.2734  144.2524  162.1918 N.am    1  UNL1       -0.2760
      8 C         139.8631  145.6744  161.9479 C.3     1  UNL1        0.1151
      9 C         140.6302  143.3659  161.0355 C.2     1  UNL1        0.2491
     10 O         141.0405  141.9438  161.2794 O.2     1  UNL1       -0.2699
     11 C         140.5767  143.9014  159.6355 C.ar    1  UNL1        0.0558
     12 C         139.4998  143.4425  158.6975 C.ar    1  UNL1        0.0047
     13 C         139.4463  143.9780  157.2974 C.ar    1  UNL1        0.0025
     14 C         140.4696  144.9726  156.8352 C.ar    1  UNL1        0.0296
     15 C         141.5465  145.4315  157.7731 C.ar    1  UNL1        0.1403
     16 F         142.5699  146.4261  157.3109 F       1  UNL1       -0.2042
     17 C         141.6000  144.8960  159.1732 C.ar    1  UNL1        0.0341
     18 C         140.5213  143.0555  168.9561 C.3     1  UNL1        0.0019
     19 C         140.4876  142.1099  167.7922 C.3     1  UNL1        0.0231
     20 C         140.5074  140.6288  168.0283 C.3     1  UNL1        0.1285
     21 N         139.6208  140.0244  169.0765 N.3     1  UNL1       -0.3150
     22 H         139.0769  140.7603  169.5273 H       1  UNL1        0.1192
     23 H         140.1938  139.5494  169.7739 H       1  UNL1        0.1192
     24 C         141.4139  139.7519  167.2162 C.2     1  UNL1        0.2397
     25 O         142.8513  139.5877  167.6126 O.2     1  UNL1       -0.2734
     26 N         140.8830  139.0392  166.0078 N.am    1  UNL1       -0.2756
     27 C         139.4762  139.1065  165.4917 C.3     1  UNL1        0.0964
     28 C         139.3895  138.2430  164.2683 C.3     1  UNL1        0.0585
     29 C         140.7427  137.6420  164.0283 C.3     1  UNL1        0.1824
     30 F         141.1086  136.7121  162.9096 F       1  UNL1       -0.2354
     31 C         141.6657  138.1341  165.1034 C.3     1  UNL1        0.1286
@<TRIPOS>BOND
     1    19    18    1
     2    19     1    1
     3     1     2    1
     4     2     3    1
     5     3     4    1
     6     4     7    1
     7     7     8    1
     8     7     9   am
     9     9    10    2
    10     9    11    1
    11    11    12   ar
    12    12    13   ar
    13    13    14   ar
    14    14    15   ar
    15    15    16    1
    16    15    17   ar
    17     4     5    1
    18     5     6    1
    19    19    20    1
    20    20    21    1
    21    20    24    1
    22    24    25    2
    23    24    26   am
    24    26    27    1
    25    27    28    1
    26    28    29    1
    27    29    30    1
    28    29    31    1
    29     6     1    1
    30    31    26    1
    31    17    11   ar
    32    21    22    1
    33    21    23    1
@<TRIPOS>MOLECULE
*****
 31 33 0 0 0
SMALL
GASTEIGER

@<TRIPOS>ATOM
      1 C         139.7058  140.1059  161.4466 C.3     1  UNL1        0.0019
      2 C         138.6466  140.1180  162.5086 C.3     1  UNL1        0.0018
      3 C         139.0216  140.3681  163.9392 C.3     1  UNL1        0.0198
      4 C         140.4560  140.6063  164.3079 C.3     1  UNL1        0.0757
      5 C         141.5153  140.5942  163.2459 C.3     1  UNL1        0.0198
      6 C         141.1402  140.3441  161.8153 C.3     1  UNL1        0.0018
      7 N         140.8310  140.8564  165.7386 N.am    1  UNL1       -0.2760
      8 C         140.8600  139.7192  166.7162 C.3     1  UNL1        0.1151
      9 C         141.1772  142.2439  166.1915 C.2     1  UNL1        0.2491
     10 O         141.1482  143.3812  165.2138 O.2     1  UNL1       -0.2699
     11 C         141.5522  142.4941  167.6221 C.ar    1  UNL1        0.0558
     12 C         140.5098  142.9419  168.6035 C.ar    1  UNL1        0.0047
     13 C         140.8848  143.1921  170.0341 C.ar    1  UNL1        0.0025
     14 C         142.3022  142.9946  170.4835 C.ar    1  UNL1        0.0296
     15 C         143.3446  142.5468  169.5022 C.ar    1  UNL1        0.1403
     16 F         144.7620  142.3492  169.9516 F       1  UNL1       -0.2042
     17 C         142.9696  142.2966  168.0715 C.ar    1  UNL1        0.0341
     18 C         139.6690  138.5448  159.3702 C.3     1  UNL1        0.0019
     19 C         139.3308  139.8558  160.0159 C.3     1  UNL1        0.0231
     20 C         138.6175  140.9166  159.2311 C.3     1  UNL1        0.1285
     21 N         137.6587  140.5286  158.1447 N.3     1  UNL1       -0.3150
     22 H         137.6145  139.5118  158.0774 H       1  UNL1        0.1192
     23 H         137.9775  140.9146  157.2560 H       1  UNL1        0.1192
     24 C         138.8631  142.3652  159.5326 C.2     1  UNL1        0.2397
     25 O         138.0354  143.0665  160.5686 O.2     1  UNL1       -0.2734
     26 N         139.9363  143.1127  158.7981 N.am    1  UNL1       -0.2756
     27 C         140.8391  142.5479  157.7417 C.3     1  UNL1        0.0964
     28 C         141.7560  143.6424  157.2818 C.3     1  UNL1        0.0585
     29 C         141.4199  144.8837  158.0540 C.3     1  UNL1        0.1824
     30 F         142.0906  146.2180  157.9138 F       1  UNL1       -0.2354
     31 C         140.2953  144.5563  158.9911 C.3     1  UNL1        0.1286
@<TRIPOS>BOND
     1    19    18    1
     2    19     1    1
     3     1     2    1
     4     2     3    1
     5     3     4    1
     6     4     7    1
     7     7     8    1
     8     7     9   am
     9     9    10    2
    10     9    11    1
    11    11    12   ar
    12    12    13   ar
    13    13    14   ar
    14    14    15   ar
    15    15    16    1
    16    15    17   ar
    17     4     5    1
    18     5     6    1
    19    19    20    1
    20    20    21    1
    21    20    24    1
    22    24    25    2
    23    24    26   am
    24    26    27    1
    25    27    28    1
    26    28    29    1
    27    29    30    1
    28    29    31    1
    29     6     1    1
    30    31    26    1
    31    17    11   ar
    32    21    22    1
    33    21    23    1
@<TRIPOS>MOLECULE
*****
 31 33 0 0 0
SMALL
GASTEIGER

@<TRIPOS>ATOM
      1 C         143.2768  141.1518  161.2154 C.3     1  UNL1        0.0019
      2 C         144.1199  140.3104  162.1271 C.3     1  UNL1        0.0018
      3 C         143.8437  140.2941  163.6013 C.3     1  UNL1        0.0198
      4 C         142.7244  141.1192  164.1639 C.3     1  UNL1        0.0757
      5 C         141.8814  141.9606  163.2522 C.3     1  UNL1        0.0198
      6 C         142.1575  141.9769  161.7780 C.3     1  UNL1        0.0018
      7 N         142.4483  141.1029  165.6382 N.am    1  UNL1       -0.2760
      8 C         142.9853  142.1958  166.5140 C.3     1  UNL1        0.1151
      9 C         141.6352  139.9935  166.2367 C.2     1  UNL1        0.2491
     10 O         141.0982  138.9005  165.3608 O.2     1  UNL1       -0.2699
     11 C         141.3590  139.9771  167.7109 C.ar    1  UNL1        0.0558
     12 C         142.4125  139.4994  168.6661 C.ar    1  UNL1        0.0047
     13 C         142.1363  139.4830  170.1403 C.ar    1  UNL1        0.0025
     14 C         140.8067  139.9443  170.6595 C.ar    1  UNL1        0.0296
     15 C         139.7534  140.4219  169.7044 C.ar    1  UNL1        0.1403
     16 F         138.4238  140.8831  170.2236 F       1  UNL1       -0.2042
     17 C         140.0295  140.4383  168.2301 C.ar    1  UNL1        0.0341
     18 C         144.4890  142.1887  159.1647 C.3     1  UNL1        0.0019
     19 C         143.5529  141.1682  159.7411 C.3     1  UNL1        0.0231
     20 C         142.8929  140.1640  158.8433 C.3     1  UNL1        0.1285
     21 N         143.7293  139.2543  157.9930 N.3     1  UNL1       -0.3150
     22 H         144.7170  139.4547  158.1502 H       1  UNL1        0.1192
     23 H         143.5040  139.4055  157.0098 H       1  UNL1        0.1192
     24 C         141.3967  140.0696  158.7957 C.2     1  UNL1        0.2397
     25 O         140.6353  140.7678  157.7081 O.2     1  UNL1       -0.2734
     26 N         140.6618  139.2769  159.8357 N.am    1  UNL1       -0.2756
     27 C         141.2843  138.5290  160.9772 C.3     1  UNL1        0.0964
     28 C         140.1826  137.8828  161.7638 C.3     1  UNL1        0.0585
     29 C         138.8792  138.2314  161.1084 C.3     1  UNL1        0.1824
     30 F         137.5184  137.7950  161.5646 F       1  UNL1       -0.2354
     31 C         139.1753  139.0930  159.9168 C.3     1  UNL1        0.1286
@<TRIPOS>BOND
     1    19    18    1
     2    19     1    1
     3     1     2    1
     4     2     3    1
     5     3     4    1
     6     4     7    1
     7     7     8    1
     8     7     9   am
     9     9    10    2
    10     9    11    1
    11    11    12   ar
    12    12    13   ar
    13    13    14   ar
    14    14    15   ar
    15    15    16    1
    16    15    17   ar
    17     4     5    1
    18     5     6    1
    19    19    20    1
    20    20    21    1
    21    20    24    1
    22    24    25    2
    23    24    26   am
    24    26    27    1
    25    27    28    1
    26    28    29    1
    27    29    30    1
    28    29    31    1
    29     6     1    1
    30    31    26    1
    31    17    11   ar
    32    21    22    1
    33    21    23    1
@<TRIPOS>MOLECULE
*****
 31 33 0 0 0
SMALL
GASTEIGER

@<TRIPOS>ATOM
      1 C         139.5415  143.0994  161.7650 C.3     1  UNL1        0.0019
      2 C         140.6021  144.1590  161.7184 C.3     1  UNL1        0.0018
      3 C         141.6786  144.0974  160.6757 C.3     1  UNL1        0.0198
      4 C         141.6944  142.9761  159.6795 C.3     1  UNL1        0.0757
      5 C         140.6338  141.9164  159.7261 C.3     1  UNL1        0.0198
      6 C         139.5574  141.9780  160.7688 C.3     1  UNL1        0.0018
      7 N         142.7710  142.9145  158.6367 N.am    1  UNL1       -0.2760
      8 C         142.6914  143.7934  157.4238 C.3     1  UNL1        0.1151
      9 C         143.9270  141.9739  158.8068 C.2     1  UNL1        0.2491
     10 O         144.0065  141.0950  160.0198 O.2     1  UNL1       -0.2699
     11 C         145.0035  141.9123  157.7641 C.ar    1  UNL1        0.0558
     12 C         146.2330  142.7600  157.9045 C.ar    1  UNL1        0.0047
     13 C         147.3095  142.6983  156.8617 C.ar    1  UNL1        0.0025
     14 C         147.1565  141.7890  155.6786 C.ar    1  UNL1        0.0296
     15 C         145.9271  140.9413  155.5383 C.ar    1  UNL1        0.1403
     16 F         145.7741  140.0320  154.3552 F       1  UNL1       -0.2042
     17 C         144.8505  141.0029  156.5810 C.ar    1  UNL1        0.0341
     18 C         137.8547  144.4800  163.1787 C.3     1  UNL1        0.0019
     19 C         138.4650  143.1610  162.8078 C.3     1  UNL1        0.0231
     20 C         137.9988  141.9035  163.4796 C.3     1  UNL1        0.1285
     21 N         136.6241  141.3707  163.2030 N.3     1  UNL1       -0.3150
     22 H         136.1488  141.9837  162.5406 H       1  UNL1        0.1192
     23 H         136.0927  141.3329  164.0729 H       1  UNL1        0.1192
     24 C         138.9072  141.1787  164.4280 C.2     1  UNL1        0.2397
     25 O         139.3601  141.8479  165.6918 O.2     1  UNL1       -0.2734
     26 N         139.3628  139.7848  164.1126 N.am    1  UNL1       -0.2756
     27 C         138.9947  138.9914  162.8940 C.3     1  UNL1        0.0964
     28 C         139.6709  137.6558  162.9887 C.3     1  UNL1        0.0585
     29 C         140.4568  137.6237  164.2659 C.3     1  UNL1        0.1824
     30 F         141.2874  136.4772  164.7615 F       1  UNL1       -0.2354
     31 C         140.2664  138.9395  164.9605 C.3     1  UNL1        0.1286
@<TRIPOS>BOND
     1    19    18    1
     2    19     1    1
     3     1     2    1
     4     2     3    1
     5     3     4    1
     6     4     7    1
     7     7     8    1
     8     7     9   am
     9     9    10    2
    10     9    11    1
    11    11    12   ar
    12    12    13   ar
    13    13    14   ar
    14    14    15   ar
    15    15    16    1
    16    15    17   ar
    17     4     5    1
    18     5     6    1
    19    19    20    1
    20    20    21    1
    21    20    24    1
    22    24    25    2
    23    24    26   am
    24    26    27    1
    25    27    28    1
    26    28    29    1
    27    29    30    1
    28    29    31    1
    29     6     1    1
    30    31    26    1
    31    17    11   ar
    32    21    22    1
    33    21    23    1
@<TRIPOS>MOLECULE
*****
 31 33 0 0 0
SMALL
GASTEIGER

@<TRIPOS>ATOM
      1 C         141.4349  138.5752  158.2319 C.3     1  UNL1        0.0019
      2 C         140.0318  138.3943  158.7304 C.3     1  UNL1        0.0018
      3 C         139.7572  138.3689  160.2048 C.3     1  UNL1        0.0198
      4 C         140.8857  138.5243  161.1807 C.3     1  UNL1        0.0757
      5 C         142.2888  138.7052  160.6822 C.3     1  UNL1        0.0198
      6 C         142.5634  138.7307  159.2079 C.3     1  UNL1        0.0018
      7 N         140.6110  138.4988  162.6552 N.am    1  UNL1       -0.2760
      8 C         140.9702  137.2879  163.4642 C.3     1  UNL1        0.1151
      9 C         139.9770  139.6843  163.3206 C.2     1  UNL1        0.2491
     10 O         139.6178  140.8953  162.5115 O.2     1  UNL1       -0.2699
     11 C         139.7023  139.6589  164.7949 C.ar    1  UNL1        0.0558
     12 C         140.6572  140.3158  165.7472 C.ar    1  UNL1        0.0047
     13 C         140.3825  140.2903  167.2216 C.ar    1  UNL1        0.0025
     14 C         139.1529  139.6080  167.7438 C.ar    1  UNL1        0.0296
     15 C         138.1981  138.9512  166.7916 C.ar    1  UNL1        0.1403
     16 F         136.9686  138.2689  167.3137 F       1  UNL1       -0.2042
     17 C         138.4728  138.9766  165.3171 C.ar    1  UNL1        0.0341
     18 C         141.1266  139.6882  155.9046 C.3     1  UNL1        0.0019
     19 C         141.7097  138.6007  156.7575 C.3     1  UNL1        0.0231
     20 C         142.5674  137.5387  156.1359 C.3     1  UNL1        0.1285
     21 N         144.0528  137.7295  156.0498 N.3     1  UNL1       -0.3150
     22 H         144.3042  138.6296  156.4585 H       1  UNL1        0.1192
     23 H         144.3423  137.7073  155.0720 H       1  UNL1        0.1192
     24 C         141.9399  136.2859  155.6005 C.2     1  UNL1        0.2397
     25 O         140.8849  136.3706  154.5375 O.2     1  UNL1       -0.2734
     26 N         142.3673  134.9484  156.1281 N.am    1  UNL1       -0.2756
     27 C         143.4044  134.7077  157.1848 C.3     1  UNL1        0.0964
     28 C         143.5107  133.2273  157.4014 C.3     1  UNL1        0.0585
     29 C         142.5393  132.5529  156.4785 C.3     1  UNL1        0.1824
     30 F         142.3141  131.0744  156.3629 F       1  UNL1       -0.2354
     31 C         141.8327  133.6166  155.6916 C.3     1  UNL1        0.1286
@<TRIPOS>BOND
     1    19    18    1
     2    19     1    1
     3     1     2    1
     4     2     3    1
     5     3     4    1
     6     4     7    1
     7     7     8    1
     8     7     9   am
     9     9    10    2
    10     9    11    1
    11    11    12   ar
    12    12    13   ar
    13    13    14   ar
    14    14    15   ar
    15    15    16    1
    16    15    17   ar
    17     4     5    1
    18     5     6    1
    19    19    20    1
    20    20    21    1
    21    20    24    1
    22    24    25    2
    23    24    26   am
    24    26    27    1
    25    27    28    1
    26    28    29    1
    27    29    30    1
    28    29    31    1
    29     6     1    1
    30    31    26    1
    31    17    11   ar
    32    21    22    1
    33    21    23    1
@<TRIPOS>MOLECULE
*****
 31 33 0 0 0
SMALL
GASTEIGER

@<TRIPOS>ATOM
      1 C         141.2514  139.1586  161.1717 C.3     1  UNL1        0.0019
      2 C         141.0759  138.1038  162.2236 C.3     1  UNL1        0.0018
      3 C         141.0682  138.4852  163.6742 C.3     1  UNL1        0.0198
      4 C         141.2359  139.9215  164.0729 C.3     1  UNL1        0.0757
      5 C         141.4115  140.9763  163.0211 C.3     1  UNL1        0.0198
      6 C         141.4192  140.5948  161.5704 C.3     1  UNL1        0.0018
      7 N         141.2282  140.3029  165.5237 N.am    1  UNL1       -0.2760
      8 C         142.4576  140.1007  166.3589 C.3     1  UNL1        0.1151
      9 C         139.9909  140.8864  166.1391 C.2     1  UNL1        0.2491
     10 O         138.7615  141.0885  165.3038 O.2     1  UNL1       -0.2699
     11 C         139.9831  141.2678  167.5897 C.ar    1  UNL1        0.0558
     12 C         139.6006  140.2562  168.6292 C.ar    1  UNL1        0.0047
     13 C         139.5928  140.6376  170.0799 C.ar    1  UNL1        0.0025
     14 C         139.9675  142.0306  170.4911 C.ar    1  UNL1        0.0296
     15 C         140.3500  143.0422  169.4518 C.ar    1  UNL1        0.1403
     16 F         140.7247  144.4352  169.8630 F       1  UNL1       -0.2042
     17 C         140.3578  142.6608  168.0010 C.ar    1  UNL1        0.0341
     18 C         139.9715  138.4513  159.0242 C.3     1  UNL1        0.0019
     19 C         141.2592  138.7772  159.7209 C.3     1  UNL1        0.0231
     20 C         142.5548  138.7216  158.9670 C.3     1  UNL1        0.1285
     21 N         143.8573  138.7877  159.7082 N.3     1  UNL1       -0.3150
     22 H         143.6755  138.8682  160.7086 H       1  UNL1        0.1192
     23 H         144.3873  139.6000  159.3925 H       1  UNL1        0.1192
     24 C         142.5479  138.6001  157.4720 C.2     1  UNL1        0.2397
     25 O         142.3806  139.8239  156.6207 O.2     1  UNL1       -0.2734
     26 N         142.7083  137.2549  156.8281 N.am    1  UNL1       -0.2756
     27 C         142.8839  135.9493  157.5455 C.3     1  UNL1        0.0964
     28 C         143.0053  134.8665  156.5146 C.3     1  UNL1        0.0585
     29 C         142.9048  135.5029  155.1600 C.3     1  UNL1        0.1824
     30 F         142.9754  134.7886  153.8428 F       1  UNL1       -0.2354
     31 C         142.7212  136.9789  155.3538 C.3     1  UNL1        0.1286
@<TRIPOS>BOND
     1    19    18    1
     2    19     1    1
     3     1     2    1
     4     2     3    1
     5     3     4    1
     6     4     7    1
     7     7     8    1
     8     7     9   am
     9     9    10    2
    10     9    11    1
    11    11    12   ar
    12    12    13   ar
    13    13    14   ar
    14    14    15   ar
    15    15    16    1
    16    15    17   ar
    17     4     5    1
    18     5     6    1
    19    19    20    1
    20    20    21    1
    21    20    24    1
    22    24    25    2
    23    24    26   am
    24    26    27    1
    25    27    28    1
    26    28    29    1
    27    29    30    1
    28    29    31    1
    29     6     1    1
    30    31    26    1
    31    17    11   ar
    32    21    22    1
    33    21    23    1
@<TRIPOS>MOLECULE
*****
 31 33 0 0 0
SMALL
GASTEIGER

@<TRIPOS>ATOM
      1 C         142.9577  140.6229  160.5535 C.3     1  UNL1        0.0019
      2 C         141.5402  140.4059  160.9933 C.3     1  UNL1        0.0018
      3 C         141.2426  140.0627  162.4228 C.3     1  UNL1        0.0198
      4 C         142.3626  139.9365  163.4126 C.3     1  UNL1        0.0757
      5 C         143.7802  140.1535  162.9729 C.3     1  UNL1        0.0198
      6 C         144.0777  140.4967  161.5433 C.3     1  UNL1        0.0018
      7 N         142.0650  139.5933  164.8422 N.am    1  UNL1       -0.2760
      8 C         141.9709  138.1572  165.2648 C.3     1  UNL1        0.1151
      9 C         141.8615  140.6863  165.8492 C.2     1  UNL1        0.2491
     10 O         141.9556  142.1225  165.4265 O.2     1  UNL1       -0.2699
     11 C         141.5639  140.3432  167.2787 C.ar    1  UNL1        0.0558
     12 C         142.6582  139.8396  168.1727 C.ar    1  UNL1        0.0047
     13 C         142.3606  139.4965  169.6022 C.ar    1  UNL1        0.0025
     14 C         140.9688  139.6569  170.1379 C.ar    1  UNL1        0.0296
     15 C         139.8745  140.1604  169.2441 C.ar    1  UNL1        0.1403
     16 F         138.4826  140.3208  169.7798 F       1  UNL1       -0.2042
     17 C         140.1721  140.5036  167.8145 C.ar    1  UNL1        0.0341
     18 C         143.3656  139.8770  158.0985 C.3     1  UNL1        0.0019
     19 C         143.2553  140.9661  159.1239 C.3     1  UNL1        0.0231
     20 C         143.4426  142.3985  158.7199 C.3     1  UNL1        0.1285
     21 N         144.8077  142.9027  158.3559 N.3     1  UNL1       -0.3150
     22 H         145.4837  142.1432  158.4378 H       1  UNL1        0.1192
     23 H         145.0696  143.6604  158.9865 H       1  UNL1        0.1192
     24 C         142.2650  143.3266  158.6797 C.2     1  UNL1        0.2397
     25 O         141.5237  143.5426  157.3936 O.2     1  UNL1       -0.2734
     26 N         141.8285  144.0387  159.9257 N.am    1  UNL1       -0.2756
     27 C         142.4682  143.9229  161.2775 C.3     1  UNL1        0.0964
     28 C         141.7107  144.8043  162.2258 C.3     1  UNL1        0.0585
     29 C         140.6029  145.4649  161.4601 C.3     1  UNL1        0.1824
     30 F         139.5985  146.4293  162.0180 F       1  UNL1       -0.2354
     31 C         140.6757  144.9917  160.0386 C.3     1  UNL1        0.1286
@<TRIPOS>BOND
     1    19    18    1
     2    19     1    1
     3     1     2    1
     4     2     3    1
     5     3     4    1
     6     4     7    1
     7     7     8    1
     8     7     9   am
     9     9    10    2
    10     9    11    1
    11    11    12   ar
    12    12    13   ar
    13    13    14   ar
    14    14    15   ar
    15    15    16    1
    16    15    17   ar
    17     4     5    1
    18     5     6    1
    19    19    20    1
    20    20    21    1
    21    20    24    1
    22    24    25    2
    23    24    26   am
    24    26    27    1
    25    27    28    1
    26    28    29    1
    27    29    30    1
    28    29    31    1
    29     6     1    1
    30    31    26    1
    31    17    11   ar
    32    21    22    1
    33    21    23    1
@<TRIPOS>MOLECULE
*****
 31 33 0 0 0
SMALL
GASTEIGER

@<TRIPOS>ATOM
      1 C         141.6206  139.1621  164.5839 C.3     1  UNL1        0.0019
      2 C         141.2328  137.8350  164.0022 C.3     1  UNL1        0.0018
      3 C         141.2075  137.6469  162.5143 C.3     1  UNL1        0.0198
      4 C         141.5700  138.7859  161.6081 C.3     1  UNL1        0.0757
      5 C         141.9578  140.1130  162.1897 C.3     1  UNL1        0.0198
      6 C         141.9831  140.3011  163.6776 C.3     1  UNL1        0.0018
      7 N         141.5447  138.5977  160.1201 N.am    1  UNL1       -0.2760
      8 C         140.2333  138.5045  159.3981 C.3     1  UNL1        0.1151
      9 C         142.8310  138.5029  159.3542 C.2     1  UNL1        0.2491
     10 O         144.1425  138.5962  160.0762 O.2     1  UNL1       -0.2699
     11 C         142.8057  138.3147  157.8663 C.ar    1  UNL1        0.0558
     12 C         142.7735  139.5093  156.9596 C.ar    1  UNL1        0.0047
     13 C         142.7483  139.3212  155.4717 C.ar    1  UNL1        0.0025
     14 C         142.7552  137.9384  154.8904 C.ar    1  UNL1        0.0296
     15 C         142.7875  136.7439  155.7969 C.ar    1  UNL1        0.1403
     16 F         142.7945  135.3611  155.2156 F       1  UNL1       -0.2042
     17 C         142.8127  136.9320  157.2849 C.ar    1  UNL1        0.0341
     18 C         142.8813  139.0073  166.8503 C.3     1  UNL1        0.0019
     19 C         141.6459  139.3503  166.0719 C.3     1  UNL1        0.0231
     20 C         140.4357  139.8815  166.7813 C.3     1  UNL1        0.1285
     21 N         140.4464  140.0304  168.2739 N.3     1  UNL1       -0.3150
     22 H         141.3487  139.7260  168.6395 H       1  UNL1        0.1192
     23 H         139.7052  139.4580  168.6781 H       1  UNL1        0.1192
     24 C         139.2148  140.2639  165.9982 C.2     1  UNL1        0.2397
     25 O         138.1233  139.2598  165.7730 O.2     1  UNL1       -0.2734
     26 N         139.0854  141.6502  165.4404 N.am    1  UNL1       -0.2756
     27 C         140.0893  142.7555  165.5834 C.3     1  UNL1        0.0964
     28 C         139.5537  143.9631  164.8729 C.3     1  UNL1        0.0585
     29 C         138.2186  143.6042  164.2908 C.3     1  UNL1        0.1824
     30 F         137.3292  144.5148  163.4972 F       1  UNL1       -0.2354
     31 C         137.9292  142.1748  164.6415 C.3     1  UNL1        0.1286
@<TRIPOS>BOND
     1    19    18    1
     2    19     1    1
     3     1     2    1
     4     2     3    1
     5     3     4    1
     6     4     7    1
     7     7     8    1
     8     7     9   am
     9     9    10    2
    10     9    11    1
    11    11    12   ar
    12    12    13   ar
    13    13    14   ar
    14    14    15   ar
    15    15    16    1
    16    15    17   ar
    17     4     5    1
    18     5     6    1
    19    19    20    1
    20    20    21    1
    21    20    24    1
    22    24    25    2
    23    24    26   am
    24    26    27    1
    25    27    28    1
    26    28    29    1
    27    29    30    1
    28    29    31    1
    29     6     1    1
    30    31    26    1
    31    17    11   ar
    32    21    22    1
    33    21    23    1
