@<TRIPOS>MOLECULE
*****
 24 25 0 0 0
SMALL
GASTEIGER

@<TRIPOS>ATOM
      1 C         139.7864  140.3344  166.9031 C.ar    1  UNL1        0.0283
      2 C         139.5936  140.2251  168.3867 C.ar    1  UNL1        0.0046
      3 C         140.5305  140.9345  169.3190 C.ar    1  UNL1        0.0531
      4 C         141.6601  141.7531  168.7677 C.ar    1  UNL1        0.0076
      5 C         141.8528  141.8623  167.2842 C.ar    1  UNL1        0.0374
      6 C         140.9160  141.1530  166.3519 C.ar    1  UNL1        0.1426
      7 C         140.3377  140.8252  170.8025 C.2     1  UNL1        0.2427
      8 N         139.8927  139.5266  171.4074 N.am    1  UNL1       -0.3253
      9 O         140.5898  142.0144  171.6812 O.2     1  UNL1       -0.2704
     10 H         139.7272  138.7461  170.8306 H       1  UNL1        0.1453
     11 H         139.7662  139.4549  172.3811 H       1  UNL1        0.1453
     12 C         138.8496  139.6250  165.9708 C.3     1  UNL1        0.0987
     13 C         137.9958  140.1852  163.5819 C.3     1  UNL1        0.0861
     14 N         137.9535  140.4149  165.0636 N.3     1  UNL1       -0.2925
     15 H         136.9958  140.2313  165.3628 H       1  UNL1        0.1236
     16 O         141.1088  141.2623  164.8683 O.3     1  UNL1       -0.4537
     17 C         140.7796  142.5437  164.1616 C.ar    1  UNL1        0.1462
     18 C         139.7996  143.5041  164.7677 C.ar    1  UNL1        0.0384
     19 C         139.4703  144.7855  164.0610 C.ar    1  UNL1        0.0154
     20 C         140.1210  145.1066  162.7482 C.ar    1  UNL1        0.0684
     21 CL        139.7918  146.3881  162.0415 Cl      1  UNL1       -0.0814
     22 C         141.1010  144.1463  162.1421 C.ar    1  UNL1        0.0712
     23 CL        141.7517  144.4674  160.8293 Cl      1  UNL1       -0.0813
     24 C         141.4303  142.8648  162.8488 C.ar    1  UNL1        0.0497
@<TRIPOS>BOND
     1    13    14    1
     2    14    12    1
     3    12     1    1
     4     1     2   ar
     5     2     3   ar
     6     3     7    1
     7     7     8   am
     8     7     9    2
     9     3     4   ar
    10     4     5   ar
    11     5     6   ar
    12     6    16    1
    13    16    17    1
    14    17    18   ar
    15    18    19   ar
    16    19    20   ar
    17    20    21    1
    18    20    22   ar
    19    22    23    1
    20    22    24   ar
    21     6     1   ar
    22    24    17   ar
    23    14    15    1
    24     8    10    1
    25     8    11    1
@<TRIPOS>MOLECULE
*****
 24 25 0 0 0
SMALL
GASTEIGER

@<TRIPOS>ATOM
      1 C         140.3023  140.1220  167.1100 C.ar    1  UNL1        0.0283
      2 C         139.8372  140.2592  168.5294 C.ar    1  UNL1        0.0046
      3 C         140.7670  139.9273  169.6587 C.ar    1  UNL1        0.0531
      4 C         142.1619  139.4582  169.3687 C.ar    1  UNL1        0.0076
      5 C         142.6270  139.3211  167.9492 C.ar    1  UNL1        0.0374
      6 C         141.6972  139.6529  166.8199 C.ar    1  UNL1        0.1426
      7 C         140.3018  140.0644  171.0782 C.2     1  UNL1        0.2427
      8 N         139.4848  138.9756  171.7083 N.am    1  UNL1       -0.3253
      9 O         140.6535  141.2904  171.8676 O.2     1  UNL1       -0.2704
     10 H         139.2539  138.1709  171.1901 H       1  UNL1        0.1453
     11 H         139.1795  139.0656  172.6399 H       1  UNL1        0.1453
     12 C         139.3725  140.4539  165.9807 C.3     1  UNL1        0.0987
     13 C         138.5304  138.0261  165.5977 C.3     1  UNL1        0.0861
     14 N         138.9039  139.3727  165.0526 N.3     1  UNL1       -0.2925
     15 H         138.0805  139.7343  164.5713 H       1  UNL1        0.1236
     16 O         142.1624  139.5158  165.4004 O.3     1  UNL1       -0.4537
     17 C         142.7282  140.7027  164.6786 C.ar    1  UNL1        0.1462
     18 C         142.5777  140.8173  163.1905 C.ar    1  UNL1        0.0384
     19 C         143.1435  142.0042  162.4687 C.ar    1  UNL1        0.0154
     20 C         143.8598  143.0765  163.2348 C.ar    1  UNL1        0.0684
     21 CL        144.4256  144.2634  162.5130 Cl      1  UNL1       -0.0814
     22 C         144.0104  142.9619  164.7228 C.ar    1  UNL1        0.0712
     23 CL        144.7268  144.0342  165.4890 Cl      1  UNL1       -0.0813
     24 C         143.4446  141.7750  165.4447 C.ar    1  UNL1        0.0497
@<TRIPOS>BOND
     1    13    14    1
     2    14    12    1
     3    12     1    1
     4     1     2   ar
     5     2     3   ar
     6     3     7    1
     7     7     8   am
     8     7     9    2
     9     3     4   ar
    10     4     5   ar
    11     5     6   ar
    12     6    16    1
    13    16    17    1
    14    17    18   ar
    15    18    19   ar
    16    19    20   ar
    17    20    21    1
    18    20    22   ar
    19    22    23    1
    20    22    24   ar
    21     6     1   ar
    22    24    17   ar
    23    14    15    1
    24     8    10    1
    25     8    11    1
@<TRIPOS>MOLECULE
*****
 24 25 0 0 0
SMALL
GASTEIGER

@<TRIPOS>ATOM
      1 C         141.6296  139.7257  167.0843 C.ar    1  UNL1        0.0283
      2 C         142.3812  139.9002  168.3706 C.ar    1  UNL1        0.0046
      3 C         141.6341  140.1353  169.6499 C.ar    1  UNL1        0.0531
      4 C         140.1354  140.1959  169.6429 C.ar    1  UNL1        0.0076
      5 C         139.3838  140.0215  168.3566 C.ar    1  UNL1        0.0374
      6 C         140.1309  139.7864  167.0773 C.ar    1  UNL1        0.1426
      7 C         142.3859  140.3097  170.9362 C.2     1  UNL1        0.2427
      8 N         143.6475  139.5354  171.1785 N.am    1  UNL1       -0.3253
      9 O         141.8759  141.2584  171.9802 O.2     1  UNL1       -0.2704
     10 H         143.9822  138.9127  170.4934 H       1  UNL1        0.1453
     11 H         144.1409  139.6499  172.0228 H       1  UNL1        0.1453
     12 C         142.3767  139.4907  165.8050 C.3     1  UNL1        0.0987
     13 C         141.8594  138.5938  163.4222 C.3     1  UNL1        0.0861
     14 N         141.9775  138.3633  164.8997 N.3     1  UNL1       -0.2925
     15 H         142.6683  137.6239  165.0280 H       1  UNL1        0.1236
     16 O         139.3792  139.6119  165.7910 O.3     1  UNL1       -0.4537
     17 C         138.9125  140.8148  165.0260 C.ar    1  UNL1        0.1462
     18 C         137.9541  140.6517  163.8836 C.ar    1  UNL1        0.0384
     19 C         137.4874  141.8546  163.1186 C.ar    1  UNL1        0.0154
     20 C         137.9791  143.2205  163.4958 C.ar    1  UNL1        0.0684
     21 CL        137.5125  144.4234  162.7308 Cl      1  UNL1       -0.0814
     22 C         138.9375  143.3836  164.6381 C.ar    1  UNL1        0.0712
     23 CL        139.4292  144.7496  165.0154 Cl      1  UNL1       -0.0813
     24 C         139.4042  142.1808  165.4032 C.ar    1  UNL1        0.0497
@<TRIPOS>BOND
     1    13    14    1
     2    14    12    1
     3    12     1    1
     4     1     2   ar
     5     2     3   ar
     6     3     7    1
     7     7     8   am
     8     7     9    2
     9     3     4   ar
    10     4     5   ar
    11     5     6   ar
    12     6    16    1
    13    16    17    1
    14    17    18   ar
    15    18    19   ar
    16    19    20   ar
    17    20    21    1
    18    20    22   ar
    19    22    23    1
    20    22    24   ar
    21     6     1   ar
    22    24    17   ar
    23    14    15    1
    24     8    10    1
    25     8    11    1
@<TRIPOS>MOLECULE
*****
 24 25 0 0 0
SMALL
GASTEIGER

@<TRIPOS>ATOM
      1 C         141.8188  141.4086  167.3093 C.ar    1  UNL1        0.0283
      2 C         141.5417  142.3562  168.4385 C.ar    1  UNL1        0.0046
      3 C         140.4722  142.0365  169.4405 C.ar    1  UNL1        0.0531
      4 C         139.6799  140.7692  169.3133 C.ar    1  UNL1        0.0076
      5 C         139.9570  139.8217  168.1840 C.ar    1  UNL1        0.0374
      6 C         141.0265  140.1414  167.1820 C.ar    1  UNL1        0.1426
      7 C         140.1951  142.9841  170.5698 C.2     1  UNL1        0.2427
      8 N         140.0077  144.4464  170.2930 N.am    1  UNL1       -0.3253
      9 O         140.1053  142.4695  171.9759 O.2     1  UNL1       -0.2704
     10 H         140.0666  144.7842  169.3701 H       1  UNL1        0.1453
     11 H         139.8258  145.0684  171.0341 H       1  UNL1        0.1453
     12 C         142.8883  141.7283  166.3073 C.3     1  UNL1        0.0987
     13 C         141.8475  143.1687  164.4120 C.3     1  UNL1        0.0861
     14 N         142.5313  141.9118  164.8620 N.3     1  UNL1       -0.2925
     15 H         143.4008  141.8441  164.3330 H       1  UNL1        0.1236
     16 O         141.3037  139.1937  166.0527 O.3     1  UNL1       -0.4537
     17 C         140.3207  139.0597  164.9277 C.ar    1  UNL1        0.1462
     18 C         140.2911  137.8073  164.1026 C.ar    1  UNL1        0.0384
     19 C         139.3081  137.6733  162.9776 C.ar    1  UNL1        0.0154
     20 C         138.3546  138.7917  162.6776 C.ar    1  UNL1        0.0684
     21 CL        137.3716  138.6578  161.5525 Cl      1  UNL1       -0.0814
     22 C         138.3841  140.0441  163.5025 C.ar    1  UNL1        0.0712
     23 CL        137.4306  141.1625  163.2025 Cl      1  UNL1       -0.0813
     24 C         139.3672  140.1781  164.6276 C.ar    1  UNL1        0.0497
@<TRIPOS>BOND
     1    13    14    1
     2    14    12    1
     3    12     1    1
     4     1     2   ar
     5     2     3   ar
     6     3     7    1
     7     7     8   am
     8     7     9    2
     9     3     4   ar
    10     4     5   ar
    11     5     6   ar
    12     6    16    1
    13    16    17    1
    14    17    18   ar
    15    18    19   ar
    16    19    20   ar
    17    20    21    1
    18    20    22   ar
    19    22    23    1
    20    22    24   ar
    21     6     1   ar
    22    24    17   ar
    23    14    15    1
    24     8    10    1
    25     8    11    1
@<TRIPOS>MOLECULE
*****
 24 25 0 0 0
SMALL
GASTEIGER

@<TRIPOS>ATOM
      1 C         139.7373  140.4326  166.9830 C.ar    1  UNL1        0.0283
      2 C         139.8084  140.1283  168.4500 C.ar    1  UNL1        0.0046
      3 C         140.1954  141.2039  169.4212 C.ar    1  UNL1        0.0531
      4 C         140.5114  142.5838  168.9254 C.ar    1  UNL1        0.0076
      5 C         140.4404  142.8881  167.4583 C.ar    1  UNL1        0.0374
      6 C         140.0533  141.8125  166.4871 C.ar    1  UNL1        0.1426
      7 C         140.2665  140.8996  170.8883 C.2     1  UNL1        0.2427
      8 N         140.0014  139.5071  171.3791 N.am    1  UNL1       -0.3253
      9 O         140.6026  141.9876  171.8646 O.2     1  UNL1       -0.2704
     10 H         139.7808  138.7930  170.7383 H       1  UNL1        0.1453
     11 H         140.0480  139.3074  172.3420 H       1  UNL1        0.1453
     12 C         139.3503  139.3570  166.0118 C.3     1  UNL1        0.0987
     13 C         138.5164  139.2889  163.5521 C.3     1  UNL1        0.0861
     14 N         138.2763  139.6141  164.9966 N.3     1  UNL1       -0.2925
     15 H         137.4606  139.0755  165.2881 H       1  UNL1        0.1236
     16 O         139.9823  142.1169  165.0200 O.3     1  UNL1       -0.4537
     17 C         141.2432  142.2284  164.2152 C.ar    1  UNL1        0.1462
     18 C         141.8132  141.0151  163.5422 C.ar    1  UNL1        0.0384
     19 C         143.0741  141.1266  162.7374 C.ar    1  UNL1        0.0154
     20 C         143.7650  142.4515  162.6057 C.ar    1  UNL1        0.0684
     21 CL        145.0259  142.5630  161.8009 Cl      1  UNL1       -0.0814
     22 C         143.1950  143.6648  163.2787 C.ar    1  UNL1        0.0712
     23 CL        143.8860  144.9897  163.1469 Cl      1  UNL1       -0.0813
     24 C         141.9341  143.5533  164.0835 C.ar    1  UNL1        0.0497
@<TRIPOS>BOND
     1    13    14    1
     2    14    12    1
     3    12     1    1
     4     1     2   ar
     5     2     3   ar
     6     3     7    1
     7     7     8   am
     8     7     9    2
     9     3     4   ar
    10     4     5   ar
    11     5     6   ar
    12     6    16    1
    13    16    17    1
    14    17    18   ar
    15    18    19   ar
    16    19    20   ar
    17    20    21    1
    18    20    22   ar
    19    22    23    1
    20    22    24   ar
    21     6     1   ar
    22    24    17   ar
    23    14    15    1
    24     8    10    1
    25     8    11    1
@<TRIPOS>MOLECULE
*****
 24 25 0 0 0
SMALL
GASTEIGER

@<TRIPOS>ATOM
      1 C         140.2753  140.4220  166.9885 C.ar    1  UNL1        0.0283
      2 C         139.9719  140.2754  168.4501 C.ar    1  UNL1        0.0046
      3 C         140.7613  141.0525  169.4616 C.ar    1  UNL1        0.0531
      4 C         141.8541  141.9761  169.0114 C.ar    1  UNL1        0.0076
      5 C         142.1574  142.1226  167.5497 C.ar    1  UNL1        0.0374
      6 C         141.3680  141.3456  166.5383 C.ar    1  UNL1        0.1426
      7 C         140.4579  140.9059  170.9233 C.2     1  UNL1        0.2427
      8 N         139.9737  139.5918  171.4606 N.am    1  UNL1       -0.3253
      9 O         140.6387  142.0733  171.8476 O.2     1  UNL1       -0.2704
     10 H         139.8550  138.8255  170.8540 H       1  UNL1        0.1453
     11 H         139.7745  139.4955  172.4200 H       1  UNL1        0.1453
     12 C         139.4858  139.6449  165.9770 C.3     1  UNL1        0.0987
     13 C         139.4133  138.0110  163.9584 C.3     1  UNL1        0.0861
     14 N         140.1950  138.8772  164.9011 N.3     1  UNL1       -0.2925
     15 H         140.6913  139.5610  164.3298 H       1  UNL1        0.1236
     16 O         141.6714  141.4922  165.0766 O.3     1  UNL1       -0.4537
     17 C         141.1736  142.6902  164.3237 C.ar    1  UNL1        0.1462
     18 C         142.1488  143.6863  163.7696 C.ar    1  UNL1        0.0384
     19 C         141.6509  144.8843  163.0167 C.ar    1  UNL1        0.0154
     20 C         140.1780  145.0864  162.8180 C.ar    1  UNL1        0.0684
     21 CL        139.6801  146.2844  162.0651 Cl      1  UNL1       -0.0814
     22 C         139.2028  144.0904  163.3721 C.ar    1  UNL1        0.0712
     23 CL        137.7298  144.2925  163.1734 Cl      1  UNL1       -0.0813
     24 C         139.7006  142.8923  164.1250 C.ar    1  UNL1        0.0497
@<TRIPOS>BOND
     1    13    14    1
     2    14    12    1
     3    12     1    1
     4     1     2   ar
     5     2     3   ar
     6     3     7    1
     7     7     8   am
     8     7     9    2
     9     3     4   ar
    10     4     5   ar
    11     5     6   ar
    12     6    16    1
    13    16    17    1
    14    17    18   ar
    15    18    19   ar
    16    19    20   ar
    17    20    21    1
    18    20    22   ar
    19    22    23    1
    20    22    24   ar
    21     6     1   ar
    22    24    17   ar
    23    14    15    1
    24     8    10    1
    25     8    11    1
@<TRIPOS>MOLECULE
*****
 24 25 0 0 0
SMALL
GASTEIGER

@<TRIPOS>ATOM
      1 C         140.3372  142.2969  166.8208 C.ar    1  UNL1        0.0283
      2 C         140.6140  142.7653  168.2186 C.ar    1  UNL1        0.0046
      3 C         140.3842  141.8422  169.3784 C.ar    1  UNL1        0.0531
      4 C         139.8775  140.4506  169.1404 C.ar    1  UNL1        0.0076
      5 C         139.6006  139.9822  167.7426 C.ar    1  UNL1        0.0374
      6 C         139.8305  140.9053  166.5828 C.ar    1  UNL1        0.1426
      7 C         140.6611  142.3108  170.7762 C.2     1  UNL1        0.2427
      8 N         142.0460  142.2040  171.3425 N.am    1  UNL1       -0.3253
      9 O         139.5531  142.8860  171.6077 O.2     1  UNL1       -0.2704
     10 H         142.7732  141.8265  170.7967 H       1  UNL1        0.1453
     11 H         142.2277  142.5115  172.2599 H       1  UNL1        0.1453
     12 C         140.5670  143.2200  165.6611 C.3     1  UNL1        0.0987
     13 C         138.5415  144.7611  165.1393 C.3     1  UNL1        0.0861
     14 N         139.4230  143.6048  164.7706 N.3     1  UNL1       -0.2925
     15 H         139.8206  143.8177  163.8557 H       1  UNL1        0.1236
     16 O         139.5536  140.4368  165.1850 O.3     1  UNL1       -0.4537
     17 C         140.6513  139.8208  164.3691 C.ar    1  UNL1        0.1462
     18 C         140.3370  139.1849  163.0474 C.ar    1  UNL1        0.0384
     19 C         141.4347  138.5690  162.2316 C.ar    1  UNL1        0.0154
     20 C         142.8467  138.5890  162.7374 C.ar    1  UNL1        0.0684
     21 CL        143.9444  137.9730  161.9216 Cl      1  UNL1       -0.0814
     22 C         143.1610  139.2249  164.0591 C.ar    1  UNL1        0.0712
     23 CL        144.5730  139.2448  164.5649 Cl      1  UNL1       -0.0813
     24 C         142.0633  139.8408  164.8750 C.ar    1  UNL1        0.0497
@<TRIPOS>BOND
     1    13    14    1
     2    14    12    1
     3    12     1    1
     4     1     2   ar
     5     2     3   ar
     6     3     7    1
     7     7     8   am
     8     7     9    2
     9     3     4   ar
    10     4     5   ar
    11     5     6   ar
    12     6    16    1
    13    16    17    1
    14    17    18   ar
    15    18    19   ar
    16    19    20   ar
    17    20    21    1
    18    20    22   ar
    19    22    23    1
    20    22    24   ar
    21     6     1   ar
    22    24    17   ar
    23    14    15    1
    24     8    10    1
    25     8    11    1
@<TRIPOS>MOLECULE
*****
 24 25 0 0 0
SMALL
GASTEIGER

@<TRIPOS>ATOM
      1 C         142.5878  139.8309  169.1852 C.ar    1  UNL1        0.0283
      2 C         142.4666  141.0235  170.0868 C.ar    1  UNL1        0.0046
      3 C         142.4715  142.4065  169.5060 C.ar    1  UNL1        0.0531
      4 C         142.5978  142.5969  168.0235 C.ar    1  UNL1        0.0076
      5 C         142.7190  141.4043  167.1219 C.ar    1  UNL1        0.0374
      6 C         142.7140  140.0213  167.7027 C.ar    1  UNL1        0.1426
      7 C         142.3503  143.5991  170.4077 C.2     1  UNL1        0.2427
      8 N         143.5042  144.0022  171.2772 N.am    1  UNL1       -0.3253
      9 O         141.0752  144.3884  170.4399 O.2     1  UNL1       -0.2704
     10 H         144.3410  143.4841  171.2561 H       1  UNL1        0.1453
     11 H         143.4246  144.7850  171.8691 H       1  UNL1        0.1453
     12 C         142.5828  138.4479  169.7660 C.3     1  UNL1        0.0987
     13 C         144.0097  136.6332  170.9579 C.3     1  UNL1        0.0861
     14 N         143.5962  138.0669  170.8042 N.3     1  UNL1       -0.2925
     15 H         144.4428  138.5970  170.5979 H       1  UNL1        0.1236
     16 O         142.8353  138.8287  166.8010 O.3     1  UNL1       -0.4537
     17 C         141.7740  138.5509  165.7780 C.ar    1  UNL1        0.1462
     18 C         142.0455  137.5919  164.6570 C.ar    1  UNL1        0.0384
     19 C         140.9842  137.3141  163.6340 C.ar    1  UNL1        0.0154
     20 C         139.6514  137.9953  163.7320 C.ar    1  UNL1        0.0684
     21 CL        138.5901  137.7176  162.7091 Cl      1  UNL1       -0.0814
     22 C         139.3799  138.9543  164.8530 C.ar    1  UNL1        0.0712
     23 CL        138.0471  139.6355  164.9510 Cl      1  UNL1       -0.0813
     24 C         140.4412  139.2321  165.8760 C.ar    1  UNL1        0.0497
@<TRIPOS>BOND
     1    13    14    1
     2    14    12    1
     3    12     1    1
     4     1     2   ar
     5     2     3   ar
     6     3     7    1
     7     7     8   am
     8     7     9    2
     9     3     4   ar
    10     4     5   ar
    11     5     6   ar
    12     6    16    1
    13    16    17    1
    14    17    18   ar
    15    18    19   ar
    16    19    20   ar
    17    20    21    1
    18    20    22   ar
    19    22    23    1
    20    22    24   ar
    21     6     1   ar
    22    24    17   ar
    23    14    15    1
    24     8    10    1
    25     8    11    1
@<TRIPOS>MOLECULE
*****
 24 25 0 0 0
SMALL
GASTEIGER

@<TRIPOS>ATOM
      1 C         141.1959  140.3053  167.3313 C.ar    1  UNL1        0.0283
      2 C         141.5428  141.2798  168.4176 C.ar    1  UNL1        0.0046
      3 C         140.5953  141.4984  169.5597 C.ar    1  UNL1        0.0531
      4 C         139.3009  140.7426  169.6156 C.ar    1  UNL1        0.0076
      5 C         138.9540  139.7681  168.5293 C.ar    1  UNL1        0.0374
      6 C         139.9015  139.5494  167.3872 C.ar    1  UNL1        0.1426
      7 C         140.9423  142.4730  170.6459 C.2     1  UNL1        0.2427
      8 N         141.7087  143.7200  170.3180 N.am    1  UNL1       -0.3253
      9 O         140.5229  142.2005  172.0601 O.2     1  UNL1       -0.2704
     10 H         141.9840  143.8989  169.3898 H       1  UNL1        0.1453
     11 H         141.9364  144.3597  171.0309 H       1  UNL1        0.1453
     12 C         142.1434  140.0866  166.1892 C.3     1  UNL1        0.0987
     13 C         143.7957  138.1023  166.4761 C.3     1  UNL1        0.0861
     14 N         142.5786  138.6965  165.8314 N.3     1  UNL1       -0.2925
     15 H         141.7977  138.0779  166.0504 H       1  UNL1        0.1236
     16 O         139.5545  138.5749  166.3010 O.3     1  UNL1       -0.4537
     17 C         139.0401  139.0728  164.9829 C.ar    1  UNL1        0.1462
     18 C         138.3020  140.3767  164.9099 C.ar    1  UNL1        0.0384
     19 C         137.7877  140.8746  163.5918 C.ar    1  UNL1        0.0154
     20 C         138.0113  140.0687  162.3466 C.ar    1  UNL1        0.0684
     21 CL        137.4970  140.5666  161.0285 Cl      1  UNL1       -0.0814
     22 C         138.7494  138.7649  162.4195 C.ar    1  UNL1        0.0712
     23 CL        138.9730  137.9590  161.1743 Cl      1  UNL1       -0.0813
     24 C         139.2638  138.2669  163.7376 C.ar    1  UNL1        0.0497
@<TRIPOS>BOND
     1    13    14    1
     2    14    12    1
     3    12     1    1
     4     1     2   ar
     5     2     3   ar
     6     3     7    1
     7     7     8   am
     8     7     9    2
     9     3     4   ar
    10     4     5   ar
    11     5     6   ar
    12     6    16    1
    13    16    17    1
    14    17    18   ar
    15    18    19   ar
    16    19    20   ar
    17    20    21    1
    18    20    22   ar
    19    22    23    1
    20    22    24   ar
    21     6     1   ar
    22    24    17   ar
    23    14    15    1
    24     8    10    1
    25     8    11    1
