@<TRIPOS>MOLECULE
*****
 28 31 0 0 0
SMALL
GASTEIGER

@<TRIPOS>ATOM
      1 C         139.6175  142.9582  161.7599 C.3     1  UNL1        0.0035
      2 C         140.7525  142.1501  162.3154 C.3     1  UNL1        0.0215
      3 C         140.5974  141.4434  163.6293 C.3     1  UNL1        0.0922
      4 N         139.3073  141.5447  164.3878 N.pl3   1  UNL1       -0.2932
      5 C         138.1723  142.3528  163.8323 C.3     1  UNL1        0.0922
      6 C         138.3274  143.0596  162.5183 C.3     1  UNL1        0.0215
      7 C         139.1522  140.8380  165.7017 C.ar    1  UNL1        0.1352
      8 C         139.9157  141.3116  166.9028 C.ar    1  UNL1        0.0640
      9 C         139.7607  140.6049  168.2168 C.ar    1  UNL1        0.1532
     10 N         138.8420  139.4245  168.3296 N.ar    1  UNL1       -0.2203
     11 C         138.0784  138.9509  167.1286 C.ar    1  UNL1        0.1417
     12 C         137.1597  137.7705  167.2414 C.3     1  UNL1        0.0737
     13 N         138.2335  139.6577  165.8146 N.ar    1  UNL1       -0.2160
     14 C         140.5243  141.0786  169.4179 C.1     1  UNL1        0.1199
     15 N         141.2878  141.5522  170.6189 N.1     1  UNL1       -0.1893
     16 N         140.0828  145.0784  157.8180 N.pl3   1  UNL1       -0.2782
     17 C         139.4666  143.7117  157.8664 C.3     1  UNL1        0.0936
     18 C         139.3115  143.0049  159.1803 C.3     1  UNL1        0.0216
     19 C         139.7726  143.6649  160.4459 C.3     1  UNL1        0.0035
     20 C         140.3887  145.0317  160.3976 C.3     1  UNL1        0.0216
     21 C         140.5438  145.7384  159.0836 C.3     1  UNL1        0.0936
     22 C         140.7031  147.9054  152.5622 C.3     1  UNL1        0.0343
     23 C         140.5480  147.1986  153.8762 C.ar    1  UNL1        0.0166
     24 C         139.6112  147.7419  154.9140 C.ar    1  UNL1        0.0991
     25 N         139.4561  147.0352  156.2279 N.ar    1  UNL1       -0.2124
     26 C         140.2378  145.7852  156.5041 C.ar    1  UNL1        0.2202
     27 N         141.1747  145.2419  155.4662 N.ar    1  UNL1       -0.2124
     28 C         141.3298  145.9486  154.1523 C.ar    1  UNL1        0.0991
@<TRIPOS>BOND
     1    22    23    1
     2    23    24   ar
     3    24    25   ar
     4    25    26   ar
     5    26    16    1
     6    16    17    1
     7    17    18    1
     8    18    19    1
     9    19     1    1
    10     1     2    1
    11     2     3    1
    12     3     4    1
    13     4     7    1
    14     7     8   ar
    15     8     9   ar
    16     9    14    1
    17    14    15    3
    18     9    10   ar
    19    10    11   ar
    20    11    12    1
    21    11    13   ar
    22     4     5    1
    23     5     6    1
    24    19    20    1
    25    20    21    1
    26    26    27   ar
    27    27    28   ar
    28    28    23   ar
    29    21    16    1
    30     6     1    1
    31    13     7   ar
@<TRIPOS>MOLECULE
*****
 28 31 0 0 0
SMALL
GASTEIGER

@<TRIPOS>ATOM
      1 C         141.4334  143.6080  162.7373 C.3     1  UNL1        0.0035
      2 C         140.2938  143.9275  163.6588 C.3     1  UNL1        0.0215
      3 C         140.3440  143.4912  165.0930 C.3     1  UNL1        0.0922
      4 N         141.5339  142.7354  165.6058 N.pl3   1  UNL1       -0.2932
      5 C         142.6734  142.4158  164.6843 C.3     1  UNL1        0.0922
      6 C         142.6232  142.8521  163.2500 C.3     1  UNL1        0.0215
      7 C         141.5841  142.2991  167.0401 C.ar    1  UNL1        0.1352
      8 C         140.3925  141.6356  167.6644 C.ar    1  UNL1        0.0640
      9 C         140.4428  141.1993  169.0986 C.ar    1  UNL1        0.1532
     10 N         141.6846  141.4265  169.9086 N.ar    1  UNL1       -0.2203
     11 C         142.8763  142.0900  169.2843 C.ar    1  UNL1        0.1417
     12 C         144.1182  142.3172  170.0943 C.3     1  UNL1        0.0737
     13 N         142.8260  142.5263  167.8500 N.ar    1  UNL1       -0.2160
     14 C         139.2511  140.5358  169.7229 C.1     1  UNL1        0.1199
     15 N         138.0594  139.8723  170.3472 N.1     1  UNL1       -0.1893
     16 N         141.2826  144.9168  158.4344 N.pl3   1  UNL1       -0.2782
     17 C         142.2753  143.8794  158.8685 C.3     1  UNL1        0.0936
     18 C         142.3255  143.4432  160.3027 C.3     1  UNL1        0.0216
     19 C         141.3831  144.0442  161.3030 C.3     1  UNL1        0.0035
     20 C         140.3904  145.0816  160.8689 C.3     1  UNL1        0.0216
     21 C         140.3402  145.5179  159.4347 C.3     1  UNL1        0.0936
     22 C         141.0816  146.6620  152.6974 C.3     1  UNL1        0.0343
     23 C         141.1318  146.2257  154.1316 C.ar    1  UNL1        0.0166
     24 C         140.1482  146.7801  155.1191 C.ar    1  UNL1        0.0991
     25 N         140.1985  146.3438  156.5534 N.ar    1  UNL1       -0.2124
     26 C         141.2323  145.3531  157.0002 C.ar    1  UNL1        0.2202
     27 N         142.2159  144.7987  156.0127 N.ar    1  UNL1       -0.2124
     28 C         142.1657  145.2350  154.5784 C.ar    1  UNL1        0.0991
@<TRIPOS>BOND
     1    22    23    1
     2    23    24   ar
     3    24    25   ar
     4    25    26   ar
     5    26    16    1
     6    16    17    1
     7    17    18    1
     8    18    19    1
     9    19     1    1
    10     1     2    1
    11     2     3    1
    12     3     4    1
    13     4     7    1
    14     7     8   ar
    15     8     9   ar
    16     9    14    1
    17    14    15    3
    18     9    10   ar
    19    10    11   ar
    20    11    12    1
    21    11    13   ar
    22     4     5    1
    23     5     6    1
    24    19    20    1
    25    20    21    1
    26    26    27   ar
    27    27    28   ar
    28    28    23   ar
    29    21    16    1
    30     6     1    1
    31    13     7   ar
@<TRIPOS>MOLECULE
*****
 28 31 0 0 0
SMALL
GASTEIGER

@<TRIPOS>ATOM
      1 C         143.4074  141.2032  162.5781 C.3     1  UNL1        0.0035
      2 C         143.5252  139.9331  163.3672 C.3     1  UNL1        0.0215
      3 C         143.1715  139.9202  164.8249 C.3     1  UNL1        0.0922
      4 N         142.7001  141.1775  165.4934 N.pl3   1  UNL1       -0.2932
      5 C         142.5824  142.4476  164.7042 C.3     1  UNL1        0.0922
      6 C         142.9360  142.4605  163.2466 C.3     1  UNL1        0.0215
      7 C         142.3465  141.1646  166.9510 C.ar    1  UNL1        0.1352
      8 C         141.6868  142.3594  167.5733 C.ar    1  UNL1        0.0640
      9 C         141.3332  142.3466  169.0310 C.ar    1  UNL1        0.1532
     10 N         141.6392  141.1389  169.8663 N.ar    1  UNL1       -0.2203
     11 C         142.2988  139.9441  169.2441 C.ar    1  UNL1        0.1417
     12 C         142.6049  138.7364  170.0794 C.3     1  UNL1        0.0737
     13 N         142.6525  139.9570  167.7864 N.ar    1  UNL1       -0.2160
     14 C         140.6735  143.5415  169.6533 C.1     1  UNL1        0.1199
     15 N         140.0139  144.7363  170.2755 N.1     1  UNL1       -0.1893
     16 N         144.4684  141.2418  158.2051 N.pl3   1  UNL1       -0.2782
     17 C         143.8255  140.0292  158.8102 C.3     1  UNL1        0.0936
     18 C         143.4719  140.0163  160.2679 C.3     1  UNL1        0.0216
     19 C         143.7611  141.2161  161.1204 C.3     1  UNL1        0.0035
     20 C         144.4039  142.4287  160.5153 C.3     1  UNL1        0.0216
     21 C         144.7576  142.4416  159.0576 C.3     1  UNL1        0.0936
     22 C         145.8830  141.2933  152.3744 C.3     1  UNL1        0.0343
     23 C         145.5293  141.2804  153.8321 C.ar    1  UNL1        0.0166
     24 C         146.5567  141.6611  154.8565 C.ar    1  UNL1        0.0991
     25 N         146.2031  141.6482  156.3142 N.ar    1  UNL1       -0.2124
     26 C         144.8220  141.2547  156.7474 C.ar    1  UNL1        0.2202
     27 N         143.7946  140.8740  155.7230 N.ar    1  UNL1       -0.2124
     28 C         144.1482  140.8869  154.2653 C.ar    1  UNL1        0.0991
@<TRIPOS>BOND
     1    22    23    1
     2    23    24   ar
     3    24    25   ar
     4    25    26   ar
     5    26    16    1
     6    16    17    1
     7    17    18    1
     8    18    19    1
     9    19     1    1
    10     1     2    1
    11     2     3    1
    12     3     4    1
    13     4     7    1
    14     7     8   ar
    15     8     9   ar
    16     9    14    1
    17    14    15    3
    18     9    10   ar
    19    10    11   ar
    20    11    12    1
    21    11    13   ar
    22     4     5    1
    23     5     6    1
    24    19    20    1
    25    20    21    1
    26    26    27   ar
    27    27    28   ar
    28    28    23   ar
    29    21    16    1
    30     6     1    1
    31    13     7   ar
@<TRIPOS>MOLECULE
*****
 28 31 0 0 0
SMALL
GASTEIGER

@<TRIPOS>ATOM
      1 C         143.3000  141.4336  163.0573 C.3     1  UNL1        0.0035
      2 C         143.8866  142.5189  163.9104 C.3     1  UNL1        0.0215
      3 C         143.5084  142.6217  165.3583 C.3     1  UNL1        0.0922
      4 N         142.5436  141.6391  165.9531 N.pl3   1  UNL1       -0.2932
      5 C         141.9571  140.5538  165.0999 C.3     1  UNL1        0.0922
      6 C         142.3353  140.4511  163.6520 C.3     1  UNL1        0.0215
      7 C         142.1654  141.7419  167.4010 C.ar    1  UNL1        0.1352
      8 C         140.9251  141.0634  167.9021 C.ar    1  UNL1        0.0640
      9 C         140.5469  141.1661  169.3500 C.ar    1  UNL1        0.1532
     10 N         141.4090  141.9473  170.2967 N.ar    1  UNL1       -0.2203
     11 C         142.6494  142.6258  169.7956 C.ar    1  UNL1        0.1417
     12 C         143.5116  143.4071  170.7424 C.3     1  UNL1        0.0737
     13 N         143.0276  142.5231  168.3477 N.ar    1  UNL1       -0.2160
     14 C         139.3065  140.4876  169.8511 C.1     1  UNL1        0.1199
     15 N         138.0661  139.8091  170.3523 N.1     1  UNL1       -0.1893
     16 N         144.4346  141.1254  158.7136 N.pl3   1  UNL1       -0.2782
     17 C         143.8910  139.9271  159.4336 C.3     1  UNL1        0.0936
     18 C         143.5128  140.0299  160.8815 C.3     1  UNL1        0.0216
     19 C         143.6782  141.3309  161.6094 C.3     1  UNL1        0.0035
     20 C         144.2219  142.5292  160.8893 C.3     1  UNL1        0.0216
     21 C         144.6001  142.4265  159.4414 C.3     1  UNL1        0.0936
     22 C         145.9474  140.7145  152.9220 C.3     1  UNL1        0.0343
     23 C         145.5692  140.8172  154.3699 C.ar    1  UNL1        0.0166
     24 C         145.7592  142.1110  155.1047 C.ar    1  UNL1        0.0991
     25 N         145.3810  142.2137  156.5526 N.ar    1  UNL1       -0.2124
     26 C         144.8128  141.0227  157.2657 C.ar    1  UNL1        0.2202
     27 N         144.6229  139.7289  156.5309 N.ar    1  UNL1       -0.2124
     28 C         145.0011  139.6261  155.0830 C.ar    1  UNL1        0.0991
@<TRIPOS>BOND
     1    22    23    1
     2    23    24   ar
     3    24    25   ar
     4    25    26   ar
     5    26    16    1
     6    16    17    1
     7    17    18    1
     8    18    19    1
     9    19     1    1
    10     1     2    1
    11     2     3    1
    12     3     4    1
    13     4     7    1
    14     7     8   ar
    15     8     9   ar
    16     9    14    1
    17    14    15    3
    18     9    10   ar
    19    10    11   ar
    20    11    12    1
    21    11    13   ar
    22     4     5    1
    23     5     6    1
    24    19    20    1
    25    20    21    1
    26    26    27   ar
    27    27    28   ar
    28    28    23   ar
    29    21    16    1
    30     6     1    1
    31    13     7   ar
@<TRIPOS>MOLECULE
*****
 28 31 0 0 0
SMALL
GASTEIGER

@<TRIPOS>ATOM
      1 C         139.3058  141.3558  162.6409 C.3     1  UNL1        0.0035
      2 C         140.7277  141.6917  162.9805 C.3     1  UNL1        0.0215
      3 C         141.1653  141.7386  164.4145 C.3     1  UNL1        0.0922
      4 N         140.1810  141.4497  165.5089 N.pl3   1  UNL1       -0.2932
      5 C         138.7591  141.1139  165.1693 C.3     1  UNL1        0.0922
      6 C         138.3215  141.0669  163.7353 C.3     1  UNL1        0.0215
      7 C         140.6186  141.4967  166.9429 C.ar    1  UNL1        0.1352
      8 C         141.3145  140.3167  167.5537 C.ar    1  UNL1        0.0640
      9 C         141.7521  140.3637  168.9877 C.ar    1  UNL1        0.1532
     10 N         141.4938  141.5907  169.8108 N.ar    1  UNL1       -0.2203
     11 C         140.7979  142.7707  169.2000 C.ar    1  UNL1        0.1417
     12 C         140.5395  143.9978  170.0232 C.3     1  UNL1        0.0737
     13 N         140.3603  142.7237  167.7660 N.ar    1  UNL1       -0.2160
     14 C         142.4481  139.1835  169.5985 C.1     1  UNL1        0.1199
     15 N         143.1440  138.0034  170.2092 N.1     1  UNL1       -0.1893
     16 N         137.9930  141.2149  158.3390 N.pl3   1  UNL1       -0.2782
     17 C         138.1210  139.9444  159.1261 C.3     1  UNL1        0.0936
     18 C         138.5586  139.9914  160.5601 C.3     1  UNL1        0.0216
     19 C         138.8682  141.3088  161.2069 C.3     1  UNL1        0.0035
     20 C         138.7403  142.5792  160.4198 C.3     1  UNL1        0.0216
     21 C         138.3027  142.5323  158.9859 C.3     1  UNL1        0.0936
     22 C         136.2427  141.0269  152.6030 C.3     1  UNL1        0.0343
     23 C         136.6802  141.0739  154.0370 C.ar    1  UNL1        0.0166
     24 C         137.2985  139.8640  154.6725 C.ar    1  UNL1        0.0991
     25 N         137.7361  139.9110  156.1065 N.ar    1  UNL1       -0.2124
     26 C         137.5554  141.1679  156.9050 C.ar    1  UNL1        0.2202
     27 N         136.9372  142.3778  156.2695 N.ar    1  UNL1       -0.2124
     28 C         136.4996  142.3308  154.8355 C.ar    1  UNL1        0.0991
@<TRIPOS>BOND
     1    22    23    1
     2    23    24   ar
     3    24    25   ar
     4    25    26   ar
     5    26    16    1
     6    16    17    1
     7    17    18    1
     8    18    19    1
     9    19     1    1
    10     1     2    1
    11     2     3    1
    12     3     4    1
    13     4     7    1
    14     7     8   ar
    15     8     9   ar
    16     9    14    1
    17    14    15    3
    18     9    10   ar
    19    10    11   ar
    20    11    12    1
    21    11    13   ar
    22     4     5    1
    23     5     6    1
    24    19    20    1
    25    20    21    1
    26    26    27   ar
    27    27    28   ar
    28    28    23   ar
    29    21    16    1
    30     6     1    1
    31    13     7   ar
@<TRIPOS>MOLECULE
*****
 28 31 0 0 0
SMALL
GASTEIGER

@<TRIPOS>ATOM
      1 C         141.3640  139.1477  162.3967 C.3     1  UNL1        0.0035
      2 C         142.0778  138.3261  163.4288 C.3     1  UNL1        0.0215
      3 C         142.0412  138.7368  164.8711 C.3     1  UNL1        0.0922
      4 N         141.2908  139.9691  165.2812 N.pl3   1  UNL1       -0.2932
      5 C         140.5770  140.7907  164.2490 C.3     1  UNL1        0.0922
      6 C         140.6136  140.3801  162.8068 C.3     1  UNL1        0.0215
      7 C         141.2542  140.3798  166.7234 C.ar    1  UNL1        0.1352
      8 C         140.0611  140.0449  167.5685 C.ar    1  UNL1        0.0640
      9 C         140.0245  140.4556  169.0107 C.ar    1  UNL1        0.1532
     10 N         141.1811  141.2011  169.6078 N.ar    1  UNL1       -0.2203
     11 C         142.3742  141.5360  168.7627 C.ar    1  UNL1        0.1417
     12 C         143.5308  142.2816  169.3598 C.3     1  UNL1        0.0737
     13 N         142.4108  141.1253  167.3205 N.ar    1  UNL1       -0.2160
     14 C         138.8313  140.1207  169.8559 C.1     1  UNL1        0.1199
     15 N         137.6382  139.7857  170.7009 N.1     1  UNL1       -0.1893
     16 N         141.4738  137.9157  158.0700 N.pl3   1  UNL1       -0.2782
     17 C         142.7067  137.7949  158.9158 C.3     1  UNL1        0.0936
     18 C         142.6701  138.2055  160.3580 C.3     1  UNL1        0.0216
     19 C         141.4006  138.7371  160.9545 C.3     1  UNL1        0.0035
     20 C         140.1677  138.8579  160.1087 C.3     1  UNL1        0.0216
     21 C         140.2043  138.4473  158.6665 C.3     1  UNL1        0.0936
     22 C         141.6202  136.2730  152.3011 C.3     1  UNL1        0.0343
     23 C         141.5836  136.6837  153.7434 C.ar    1  UNL1        0.0166
     24 C         142.8107  137.2511  154.3930 C.ar    1  UNL1        0.0991
     25 N         142.7742  137.6618  155.8352 N.ar    1  UNL1       -0.2124
     26 C         141.5104  137.5050  156.6278 C.ar    1  UNL1        0.2202
     27 N         140.2832  136.9377  155.9782 N.ar    1  UNL1       -0.2124
     28 C         140.3198  136.5270  154.5360 C.ar    1  UNL1        0.0991
@<TRIPOS>BOND
     1    22    23    1
     2    23    24   ar
     3    24    25   ar
     4    25    26   ar
     5    26    16    1
     6    16    17    1
     7    17    18    1
     8    18    19    1
     9    19     1    1
    10     1     2    1
    11     2     3    1
    12     3     4    1
    13     4     7    1
    14     7     8   ar
    15     8     9   ar
    16     9    14    1
    17    14    15    3
    18     9    10   ar
    19    10    11   ar
    20    11    12    1
    21    11    13   ar
    22     4     5    1
    23     5     6    1
    24    19    20    1
    25    20    21    1
    26    26    27   ar
    27    27    28   ar
    28    28    23   ar
    29    21    16    1
    30     6     1    1
    31    13     7   ar
@<TRIPOS>MOLECULE
*****
 28 31 0 0 0
SMALL
GASTEIGER

@<TRIPOS>ATOM
      1 C         141.3087  139.1632  162.4952 C.3     1  UNL1        0.0035
      2 C         140.0159  139.1571  163.2557 C.3     1  UNL1        0.0215
      3 C         139.9894  139.5838  164.6934 C.3     1  UNL1        0.0922
      4 N         141.2559  140.0167  165.3707 N.pl3   1  UNL1       -0.2932
      5 C         142.5487  140.0228  164.6102 C.3     1  UNL1        0.0922
      6 C         142.5752  139.5961  163.1724 C.3     1  UNL1        0.0215
      7 C         141.2294  140.4434  166.8085 C.ar    1  UNL1        0.1352
      8 C         142.4150  141.1419  167.4055 C.ar    1  UNL1        0.0640
      9 C         142.3886  141.5686  168.8432 C.ar    1  UNL1        0.1532
     10 N         141.1765  141.2968  169.6841 N.ar    1  UNL1       -0.2203
     11 C         139.9909  140.5984  169.0871 C.ar    1  UNL1        0.1417
     12 C         138.7788  140.3266  169.9279 C.3     1  UNL1        0.0737
     13 N         140.0174  140.1717  167.6493 N.ar    1  UNL1       -0.2160
     14 C         143.5743  142.2671  169.4402 C.1     1  UNL1        0.1199
     15 N         144.7600  142.9655  170.0371 N.1     1  UNL1       -0.1893
     16 N         141.3881  137.8831  158.1818 N.pl3   1  UNL1       -0.2782
     17 C         140.1051  138.3520  158.8015 C.3     1  UNL1        0.0936
     18 C         140.0787  138.7788  160.2393 C.3     1  UNL1        0.0216
     19 C         141.3352  138.7365  161.0574 C.3     1  UNL1        0.0035
     20 C         142.6181  138.2676  160.4377 C.3     1  UNL1        0.0216
     21 C         142.6446  137.8408  158.9999 C.3     1  UNL1        0.0936
     22 C         141.4938  136.1762  152.4307 C.3     1  UNL1        0.0343
     23 C         141.4674  136.6029  153.8685 C.ar    1  UNL1        0.0166
     24 C         142.7504  136.9010  154.5860 C.ar    1  UNL1        0.0991
     25 N         142.7240  137.3277  156.0238 N.ar    1  UNL1       -0.2124
     26 C         141.4145  137.4564  156.7440 C.ar    1  UNL1        0.2202
     27 N         140.1315  137.1582  156.0265 N.ar    1  UNL1       -0.2124
     28 C         140.1579  136.7315  154.5887 C.ar    1  UNL1        0.0991
@<TRIPOS>BOND
     1    22    23    1
     2    23    24   ar
     3    24    25   ar
     4    25    26   ar
     5    26    16    1
     6    16    17    1
     7    17    18    1
     8    18    19    1
     9    19     1    1
    10     1     2    1
    11     2     3    1
    12     3     4    1
    13     4     7    1
    14     7     8   ar
    15     8     9   ar
    16     9    14    1
    17    14    15    3
    18     9    10   ar
    19    10    11   ar
    20    11    12    1
    21    11    13   ar
    22     4     5    1
    23     5     6    1
    24    19    20    1
    25    20    21    1
    26    26    27   ar
    27    27    28   ar
    28    28    23   ar
    29    21    16    1
    30     6     1    1
    31    13     7   ar
@<TRIPOS>MOLECULE
*****
 28 31 0 0 0
SMALL
GASTEIGER

@<TRIPOS>ATOM
      1 C         142.5252  140.9814  161.9072 C.3     1  UNL1        0.0035
      2 C         141.6795  142.0575  162.5207 C.3     1  UNL1        0.0215
      3 C         140.9506  141.7975  163.8057 C.3     1  UNL1        0.0922
      4 N         141.0676  140.4613  164.4772 N.pl3   1  UNL1       -0.2932
      5 C         141.9134  139.3851  163.8636 C.3     1  UNL1        0.0922
      6 C         142.6422  139.6452  162.5786 C.3     1  UNL1        0.0215
      7 C         140.3388  140.2012  165.7622 C.ar    1  UNL1        0.1352
      8 C         140.7401  140.9268  167.0121 C.ar    1  UNL1        0.0640
      9 C         140.0113  140.6668  168.2971 C.ar    1  UNL1        0.1532
     10 N         138.8811  139.6812  168.3321 N.ar    1  UNL1       -0.2203
     11 C         138.4798  138.9556  167.0822 C.ar    1  UNL1        0.1417
     12 C         137.3496  137.9699  167.1172 C.3     1  UNL1        0.0737
     13 N         139.2086  139.2156  165.7972 N.ar    1  UNL1       -0.2160
     14 C         140.4127  141.3924  169.5471 C.1     1  UNL1        0.1199
     15 N         140.8141  142.1180  170.7970 N.1     1  UNL1       -0.1893
     16 N         144.7117  141.7615  158.0522 N.pl3   1  UNL1       -0.2782
     17 C         144.6375  142.8304  159.1019 C.3     1  UNL1        0.0936
     18 C         143.9087  142.5703  160.3869 C.3     1  UNL1        0.0216
     19 C         143.2541  141.2414  160.6222 C.3     1  UNL1        0.0035
     20 C         143.3283  140.1725  159.5725 C.3     1  UNL1        0.0216
     21 C         144.0571  140.4326  158.2875 C.3     1  UNL1        0.0936
     22 C         147.6270  142.8016  152.9122 C.3     1  UNL1        0.0343
     23 C         146.8981  142.5416  154.1972 C.ar    1  UNL1        0.0166
     24 C         145.4312  142.2294  154.1775 C.ar    1  UNL1        0.0991
     25 N         144.7023  141.9694  155.4625 N.ar    1  UNL1       -0.2124
     26 C         145.4405  142.0215  156.7672 C.ar    1  UNL1        0.2202
     27 N         146.9075  142.3337  156.7869 N.ar    1  UNL1       -0.2124
     28 C         147.6363  142.5937  155.5019 C.ar    1  UNL1        0.0991
@<TRIPOS>BOND
     1    22    23    1
     2    23    24   ar
     3    24    25   ar
     4    25    26   ar
     5    26    16    1
     6    16    17    1
     7    17    18    1
     8    18    19    1
     9    19     1    1
    10     1     2    1
    11     2     3    1
    12     3     4    1
    13     4     7    1
    14     7     8   ar
    15     8     9   ar
    16     9    14    1
    17    14    15    3
    18     9    10   ar
    19    10    11   ar
    20    11    12    1
    21    11    13   ar
    22     4     5    1
    23     5     6    1
    24    19    20    1
    25    20    21    1
    26    26    27   ar
    27    27    28   ar
    28    28    23   ar
    29    21    16    1
    30     6     1    1
    31    13     7   ar
@<TRIPOS>MOLECULE
*****
 28 31 0 0 0
SMALL
GASTEIGER

@<TRIPOS>ATOM
      1 C         139.7919  140.6892  162.4129 C.3     1  UNL1        0.0035
      2 C         141.0031  140.0079  162.9774 C.3     1  UNL1        0.0215
      3 C         141.3321  140.1484  164.4341 C.3     1  UNL1        0.0922
      4 N         140.4498  140.9702  165.3263 N.pl3   1  UNL1       -0.2932
      5 C         139.2385  141.6515  164.7619 C.3     1  UNL1        0.0922
      6 C         138.9096  141.5110  163.3051 C.3     1  UNL1        0.0215
      7 C         140.7787  141.1107  166.7831 C.ar    1  UNL1        0.1352
      8 C         140.4195  142.3697  167.5150 C.ar    1  UNL1        0.0640
      9 C         140.7484  142.5103  168.9717 C.ar    1  UNL1        0.1532
     10 N         141.4366  141.3918  169.6965 N.ar    1  UNL1       -0.2203
     11 C         141.7958  140.1328  168.9646 C.ar    1  UNL1        0.1417
     12 C         142.4840  139.0142  169.6894 C.3     1  UNL1        0.0737
     13 N         141.4669  139.9922  167.5079 N.ar    1  UNL1       -0.2160
     14 C         140.3892  143.7694  169.7037 C.1     1  UNL1        0.1199
     15 N         140.0300  145.0284  170.4356 N.1     1  UNL1       -0.1893
     16 N         138.8051  140.2676  158.0427 N.pl3   1  UNL1       -0.2782
     17 C         138.3435  141.4756  158.8027 C.3     1  UNL1        0.0936
     18 C         138.6724  141.6161  160.2594 C.3     1  UNL1        0.0216
     19 C         139.4630  140.5486  160.9562 C.3     1  UNL1        0.0035
     20 C         139.9245  139.3406  160.1962 C.3     1  UNL1        0.0216
     21 C         139.5956  139.2001  158.7395 C.3     1  UNL1        0.0936
     22 C         137.4893  139.7055  152.2158 C.3     1  UNL1        0.0343
     23 C         137.8183  139.8460  153.6725 C.ar    1  UNL1        0.0166
     24 C         137.8145  141.2015  154.3149 C.ar    1  UNL1        0.0991
     25 N         138.1435  141.3420  155.7716 N.ar    1  UNL1       -0.2124
     26 C         138.4761  140.1271  156.5860 C.ar    1  UNL1        0.2202
     27 N         138.4799  138.7716  155.9436 N.ar    1  UNL1       -0.2124
     28 C         138.1509  138.6311  154.4869 C.ar    1  UNL1        0.0991
@<TRIPOS>BOND
     1    22    23    1
     2    23    24   ar
     3    24    25   ar
     4    25    26   ar
     5    26    16    1
     6    16    17    1
     7    17    18    1
     8    18    19    1
     9    19     1    1
    10     1     2    1
    11     2     3    1
    12     3     4    1
    13     4     7    1
    14     7     8   ar
    15     8     9   ar
    16     9    14    1
    17    14    15    3
    18     9    10   ar
    19    10    11   ar
    20    11    12    1
    21    11    13   ar
    22     4     5    1
    23     5     6    1
    24    19    20    1
    25    20    21    1
    26    26    27   ar
    27    27    28   ar
    28    28    23   ar
    29    21    16    1
    30     6     1    1
    31    13     7   ar
