@<TRIPOS>MOLECULE
*****
 24 27 0 0 0
SMALL
GASTEIGER

@<TRIPOS>ATOM
      1 C         137.3038  141.7839  163.2187 C.3     1  UNL1        0.0540
      2 C         138.5795  141.8750  164.0024 C.ar    1  UNL1        0.0804
      3 N         138.8751  141.1662  165.2909 N.ar    1  UNL1       -0.1698
      4 N         140.2618  141.5440  165.7201 N.ar    1  UNL1       -0.2340
      5 C         140.8232  142.4863  164.6969 C.ar    1  UNL1        0.0620
      6 C         142.1853  143.1138  164.7295 C.3     1  UNL1        0.0522
      7 C         139.7834  142.6909  163.6353 C.ar    1  UNL1        0.0289
      8 C         140.9640  141.0638  166.9557 C.ar    1  UNL1        0.0821
      9 C         141.9786  139.9631  166.8618 C.ar    1  UNL1        0.0188
     10 C         142.6807  139.4829  168.0973 C.ar    1  UNL1       -0.0016
     11 C         142.3681  140.1034  169.4267 C.ar    1  UNL1       -0.0089
     12 C         141.3534  141.2041  169.5206 C.ar    1  UNL1       -0.0075
     13 C         140.6513  141.6843  168.2851 C.ar    1  UNL1        0.0159
     14 C         141.2536  141.6213  170.9579 C.3     1  UNL1        0.0957
     15 N         142.2067  140.7784  171.7524 N.3     1  UNL1       -0.2900
     16 C         142.8955  139.8403  170.8060 C.3     1  UNL1        0.0956
     17 H         141.6945  140.2462  172.4558 H       1  UNL1        0.1239
     18 C         139.9232  143.5589  162.4200 C.ar    1  UNL1        0.0025
     19 C         139.7760  145.0468  162.5401 C.ar    1  UNL1        0.0024
     20 C         139.9159  145.9148  161.3247 C.ar    1  UNL1        0.0296
     21 C         140.2028  145.2948  159.9893 C.ar    1  UNL1        0.1401
     22 F         140.3427  146.1628  158.7740 F       1  UNL1       -0.2042
     23 C         140.3500  143.8069  159.8692 C.ar    1  UNL1        0.0296
     24 C         140.2102  142.9389  161.0846 C.ar    1  UNL1        0.0024
@<TRIPOS>BOND
     1     1     2    1
     2     2     3   ar
     3     3     4   ar
     4     4     8    1
     5     8     9   ar
     6     9    10   ar
     7    10    11   ar
     8    11    12   ar
     9    12    13   ar
    10    12    14    1
    11    14    15    1
    12    15    16    1
    13     4     5   ar
    14     5     6    1
    15     5     7   ar
    16     7    18    1
    17    18    19   ar
    18    19    20   ar
    19    20    21   ar
    20    21    22    1
    21    21    23   ar
    22    23    24   ar
    23     7     2   ar
    24    24    18   ar
    25    13     8   ar
    26    16    11    1
    27    15    17    1
@<TRIPOS>MOLECULE
*****
 24 27 0 0 0
SMALL
GASTEIGER

@<TRIPOS>ATOM
      1 C         144.2630  144.0399  163.4702 C.3     1  UNL1        0.0540
      2 C         143.0464  143.5426  164.1930 C.ar    1  UNL1        0.0804
      3 N         143.0334  142.8446  165.5206 N.ar    1  UNL1       -0.1698
      4 N         141.6081  142.5266  165.8632 N.ar    1  UNL1       -0.2340
      5 C         140.7402  143.0281  164.7473 C.ar    1  UNL1        0.0620
      6 C         139.2457  142.9206  164.6761 C.3     1  UNL1        0.0522
      7 C         141.6291  143.6560  163.7150 C.ar    1  UNL1        0.0289
      8 C         141.1340  141.8295  167.1039 C.ar    1  UNL1        0.0821
      9 C         140.1326  140.7173  167.0031 C.ar    1  UNL1        0.0188
     10 C         139.6584  140.0202  168.2437 C.ar    1  UNL1       -0.0016
     11 C         140.1857  140.4353  169.5852 C.ar    1  UNL1       -0.0089
     12 C         141.1871  141.5475  169.6861 C.ar    1  UNL1       -0.0075
     13 C         141.6613  142.2446  168.4454 C.ar    1  UNL1        0.0159
     14 C         141.5258  141.7364  171.1351 C.3     1  UNL1        0.0957
     15 N         140.7337  140.7409  171.9298 N.3     1  UNL1       -0.2900
     16 C         139.9055  139.9368  170.9719 C.3     1  UNL1        0.0956
     17 H         140.1259  141.2285  172.5880 H       1  UNL1        0.1239
     18 C         141.1796  144.2867  162.4304 C.ar    1  UNL1        0.0025
     19 C         141.5442  143.6580  161.1184 C.ar    1  UNL1        0.0024
     20 C         141.0946  144.2887  159.8337 C.ar    1  UNL1        0.0296
     21 C         140.2803  145.5481  159.8614 C.ar    1  UNL1        0.1401
     22 F         139.8306  146.1788  158.5769 F       1  UNL1       -0.2042
     23 C         139.9156  146.1769  161.1736 C.ar    1  UNL1        0.0296
     24 C         140.3652  145.5461  162.4581 C.ar    1  UNL1        0.0024
@<TRIPOS>BOND
     1     1     2    1
     2     2     3   ar
     3     3     4   ar
     4     4     8    1
     5     8     9   ar
     6     9    10   ar
     7    10    11   ar
     8    11    12   ar
     9    12    13   ar
    10    12    14    1
    11    14    15    1
    12    15    16    1
    13     4     5   ar
    14     5     6    1
    15     5     7   ar
    16     7    18    1
    17    18    19   ar
    18    19    20   ar
    19    20    21   ar
    20    21    22    1
    21    21    23   ar
    22    23    24   ar
    23     7     2   ar
    24    24    18   ar
    25    13     8   ar
    26    16    11    1
    27    15    17    1
@<TRIPOS>MOLECULE
*****
 24 27 0 0 0
SMALL
GASTEIGER

@<TRIPOS>ATOM
      1 C         139.2388  140.0174  170.4899 C.3     1  UNL1        0.0540
      2 C         139.5526  140.1476  169.0289 C.ar    1  UNL1        0.0804
      3 N         138.8345  139.4565  167.9079 N.ar    1  UNL1       -0.1698
      4 N         139.4776  139.8735  166.6186 N.ar    1  UNL1       -0.2340
      5 C         140.5932  140.8224  166.9427 C.ar    1  UNL1        0.0620
      6 C         141.5028  141.4856  165.9512 C.3     1  UNL1        0.0522
      7 C         140.6395  140.9919  168.4324 C.ar    1  UNL1        0.0289
      8 C         139.0757  139.4211  165.2460 C.ar    1  UNL1        0.0821
      9 C         139.2953  137.9963  164.8317 C.ar    1  UNL1        0.0188
     10 C         138.8934  137.5438  163.4592 C.ar    1  UNL1       -0.0016
     11 C         138.2719  138.5162  162.5010 C.ar    1  UNL1       -0.0089
     12 C         138.0524  139.9411  162.9152 C.ar    1  UNL1       -0.0075
     13 C         138.4542  140.3935  164.2877 C.ar    1  UNL1        0.0159
     14 C         137.4226  140.6669  161.7635 C.3     1  UNL1        0.0957
     15 N         137.2530  139.6906  160.6374 N.3     1  UNL1       -0.2900
     16 C         137.7779  138.3614  161.0932 C.3     1  UNL1        0.0956
     17 H         137.7767  140.0085  159.8219 H       1  UNL1        0.1239
     18 C         141.6036  141.8541  169.1920 C.ar    1  UNL1        0.0025
     19 C         141.1183  143.0957  169.8797 C.ar    1  UNL1        0.0024
     20 C         142.0825  143.9579  170.6393 C.ar    1  UNL1        0.0296
     21 C         143.5319  143.5785  170.7112 C.ar    1  UNL1        0.1401
     22 F         144.4961  144.4407  171.4708 F       1  UNL1       -0.2042
     23 C         144.0173  142.3369  170.0235 C.ar    1  UNL1        0.0296
     24 C         143.0531  141.4747  169.2639 C.ar    1  UNL1        0.0024
@<TRIPOS>BOND
     1     1     2    1
     2     2     3   ar
     3     3     4   ar
     4     4     8    1
     5     8     9   ar
     6     9    10   ar
     7    10    11   ar
     8    11    12   ar
     9    12    13   ar
    10    12    14    1
    11    14    15    1
    12    15    16    1
    13     4     5   ar
    14     5     6    1
    15     5     7   ar
    16     7    18    1
    17    18    19   ar
    18    19    20   ar
    19    20    21   ar
    20    21    22    1
    21    21    23   ar
    22    23    24   ar
    23     7     2   ar
    24    24    18   ar
    25    13     8   ar
    26    16    11    1
    27    15    17    1
@<TRIPOS>MOLECULE
*****
 24 27 0 0 0
SMALL
GASTEIGER

@<TRIPOS>ATOM
      1 C         141.5836  137.6206  162.7785 C.3     1  UNL1        0.0540
      2 C         141.0126  138.6129  163.7477 C.ar    1  UNL1        0.0804
      3 N         141.3739  138.7368  165.1982 N.ar    1  UNL1       -0.1698
      4 N         140.5646  139.8560  165.7835 N.ar    1  UNL1       -0.2340
      5 C         139.7032  140.4237  164.6946 C.ar    1  UNL1        0.0620
      6 C         138.7349  141.5603  164.8386 C.3     1  UNL1        0.0522
      7 C         139.9801  139.6554  163.4364 C.ar    1  UNL1        0.0289
      8 C         140.6090  140.3251  167.2076 C.ar    1  UNL1        0.0821
      9 C         139.4870  139.9871  168.1439 C.ar    1  UNL1        0.0188
     10 C         139.5314  140.4561  169.5679 C.ar    1  UNL1       -0.0016
     11 C         140.6978  141.2632  170.0557 C.ar    1  UNL1       -0.0089
     12 C         141.8200  141.6012  169.1194 C.ar    1  UNL1       -0.0075
     13 C         141.7756  141.1322  167.6954 C.ar    1  UNL1        0.0159
     14 C         142.8316  142.4064  169.8798 C.3     1  UNL1        0.0957
     15 N         142.3347  142.5660  171.2861 N.3     1  UNL1       -0.2900
     16 C         141.0160  141.8595  171.3948 C.3     1  UNL1        0.0956
     17 H         142.2157  143.5560  171.5009 H       1  UNL1        0.1239
     18 C         139.3372  139.8888  162.1014 C.ar    1  UNL1        0.0025
     19 C         140.0938  140.5991  161.0185 C.ar    1  UNL1        0.0024
     20 C         139.4509  140.8325  159.6834 C.ar    1  UNL1        0.0296
     21 C         138.0512  140.3555  159.4315 C.ar    1  UNL1        0.1401
     22 F         137.4082  140.5889  158.0966 F       1  UNL1       -0.2042
     23 C         137.2945  139.6452  160.5145 C.ar    1  UNL1        0.0296
     24 C         137.9375  139.4118  161.8495 C.ar    1  UNL1        0.0024
@<TRIPOS>BOND
     1     1     2    1
     2     2     3   ar
     3     3     4   ar
     4     4     8    1
     5     8     9   ar
     6     9    10   ar
     7    10    11   ar
     8    11    12   ar
     9    12    13   ar
    10    12    14    1
    11    14    15    1
    12    15    16    1
    13     4     5   ar
    14     5     6    1
    15     5     7   ar
    16     7    18    1
    17    18    19   ar
    18    19    20   ar
    19    20    21   ar
    20    21    22    1
    21    21    23   ar
    22    23    24   ar
    23     7     2   ar
    24    24    18   ar
    25    13     8   ar
    26    16    11    1
    27    15    17    1
@<TRIPOS>MOLECULE
*****
 24 27 0 0 0
SMALL
GASTEIGER

@<TRIPOS>ATOM
      1 C         138.6834  139.6835  168.7353 C.3     1  UNL1        0.0540
      2 C         139.3611  139.9075  167.4160 C.ar    1  UNL1        0.0804
      3 N         138.9538  139.3084  166.1027 N.ar    1  UNL1       -0.1698
      4 N         139.9060  139.8006  165.0534 N.ar    1  UNL1       -0.2340
      5 C         140.9019  140.7039  165.7184 C.ar    1  UNL1        0.0620
      6 C         142.0356  141.4162  165.0419 C.3     1  UNL1        0.0522
      7 C         140.5651  140.7700  167.1786 C.ar    1  UNL1        0.0289
      8 C         139.8689  139.4508  163.5952 C.ar    1  UNL1        0.0821
      9 C         140.7638  138.3728  163.0595 C.ar    1  UNL1        0.0188
     10 C         140.7267  138.0231  161.6013 C.ar    1  UNL1       -0.0016
     11 C         139.7946  138.7513  160.6788 C.ar    1  UNL1       -0.0089
     12 C         138.8997  139.8293  161.2146 C.ar    1  UNL1       -0.0075
     13 C         138.9368  140.1791  162.6727 C.ar    1  UNL1        0.0159
     14 C         138.0909  140.3703  160.0729 C.3     1  UNL1        0.0957
     15 N         138.4861  139.6266  158.8317 N.3     1  UNL1       -0.2900
     16 C         139.5390  138.6260  159.2061 C.3     1  UNL1        0.0956
     17 H         138.8581  140.2786  158.1412 H       1  UNL1        0.1239
     18 C         141.3029  141.5600  168.2186 C.ar    1  UNL1        0.0025
     19 C         142.6940  141.1631  168.6150 C.ar    1  UNL1        0.0024
     20 C         143.4318  141.9531  169.6551 C.ar    1  UNL1        0.0296
     21 C         142.7783  143.1401  170.2986 C.ar    1  UNL1        0.1401
     22 F         143.5160  143.9301  171.3386 F       1  UNL1       -0.2042
     23 C         141.3871  143.5371  169.9021 C.ar    1  UNL1        0.0296
     24 C         140.6495  142.7470  168.8621 C.ar    1  UNL1        0.0024
@<TRIPOS>BOND
     1     1     2    1
     2     2     3   ar
     3     3     4   ar
     4     4     8    1
     5     8     9   ar
     6     9    10   ar
     7    10    11   ar
     8    11    12   ar
     9    12    13   ar
    10    12    14    1
    11    14    15    1
    12    15    16    1
    13     4     5   ar
    14     5     6    1
    15     5     7   ar
    16     7    18    1
    17    18    19   ar
    18    19    20   ar
    19    20    21   ar
    20    21    22    1
    21    21    23   ar
    22    23    24   ar
    23     7     2   ar
    24    24    18   ar
    25    13     8   ar
    26    16    11    1
    27    15    17    1
@<TRIPOS>MOLECULE
*****
 24 27 0 0 0
SMALL
GASTEIGER

@<TRIPOS>ATOM
      1 C         142.9971  138.9936  167.3916 C.3     1  UNL1        0.0540
      2 C         142.0180  139.3578  166.3151 C.ar    1  UNL1        0.0804
      3 N         142.0294  138.8490  164.9041 N.ar    1  UNL1       -0.1698
      4 N         140.8741  139.4714  164.1776 N.ar    1  UNL1       -0.2340
      5 C         140.1487  140.3649  165.1397 C.ar    1  UNL1        0.0620
      6 C         138.9302  141.1848  164.8343 C.3     1  UNL1        0.0522
      7 C         140.8557  140.2947  166.4607 C.ar    1  UNL1        0.0289
      8 C         140.5084  139.2409  162.7412 C.ar    1  UNL1        0.0821
      9 C         139.4121  138.2788  162.3916 C.ar    1  UNL1        0.0188
     10 C         139.0464  138.0482  160.9552 C.ar    1  UNL1       -0.0016
     11 C         139.7771  138.7798  159.8685 C.ar    1  UNL1       -0.0089
     12 C         140.8734  139.7419  160.2182 C.ar    1  UNL1       -0.0075
     13 C         141.2391  139.9725  161.6545 C.ar    1  UNL1        0.0159
     14 C         141.4126  140.3144  158.9409 C.3     1  UNL1        0.0957
     15 N         140.6495  139.7060  157.8018 N.3     1  UNL1       -0.2900
     16 C         139.6387  138.7576  158.3751 C.3     1  UNL1        0.0956
     17 H         141.2885  139.2012  157.1876 H       1  UNL1        0.1239
     18 C         140.4683  141.0319  167.7083 C.ar    1  UNL1        0.0025
     19 C         140.8677  142.4667  167.8862 C.ar    1  UNL1        0.0024
     20 C         140.4802  143.2039  169.1339 C.ar    1  UNL1        0.0296
     21 C         139.6933  142.5062  170.2034 C.ar    1  UNL1        0.1401
     22 F         139.3058  143.2434  171.4510 F       1  UNL1       -0.2042
     23 C         139.2938  141.0714  170.0255 C.ar    1  UNL1        0.0296
     24 C         139.6813  140.3342  168.7779 C.ar    1  UNL1        0.0024
@<TRIPOS>BOND
     1     1     2    1
     2     2     3   ar
     3     3     4   ar
     4     4     8    1
     5     8     9   ar
     6     9    10   ar
     7    10    11   ar
     8    11    12   ar
     9    12    13   ar
    10    12    14    1
    11    14    15    1
    12    15    16    1
    13     4     5   ar
    14     5     6    1
    15     5     7   ar
    16     7    18    1
    17    18    19   ar
    18    19    20   ar
    19    20    21   ar
    20    21    22    1
    21    21    23   ar
    22    23    24   ar
    23     7     2   ar
    24    24    18   ar
    25    13     8   ar
    26    16    11    1
    27    15    17    1
@<TRIPOS>MOLECULE
*****
 24 27 0 0 0
SMALL
GASTEIGER

@<TRIPOS>ATOM
      1 C         138.8823  139.5744  168.1355 C.3     1  UNL1        0.0540
      2 C         139.2391  140.2950  166.8692 C.ar    1  UNL1        0.0804
      3 N         138.6586  140.0316  165.5114 N.ar    1  UNL1       -0.1698
      4 N         139.2998  140.9793  164.5415 N.ar    1  UNL1       -0.2340
      5 C         140.2765  141.8283  165.2999 C.ar    1  UNL1        0.0620
      6 C         141.1394  142.9104  164.7212 C.3     1  UNL1        0.0522
      7 C         140.2390  141.4054  166.7385 C.ar    1  UNL1        0.0289
      8 C         139.0143  141.0632  163.0712 C.ar    1  UNL1        0.0821
      9 C         138.4021  142.3057  162.4959 C.ar    1  UNL1        0.0188
     10 C         138.1166  142.3897  161.0257 C.ar    1  UNL1       -0.0016
     11 C         138.4434  141.2310  160.1309 C.ar    1  UNL1       -0.0089
     12 C         139.0557  139.9884  160.7063 C.ar    1  UNL1       -0.0075
     13 C         139.3411  139.9045  162.1765 C.ar    1  UNL1        0.0159
     14 C         139.2676  139.0142  159.5855 C.3     1  UNL1        0.0957
     15 N         138.7863  139.6548  158.3175 N.3     1  UNL1       -0.2900
     16 C         138.2769  141.0248  158.6545 C.3     1  UNL1        0.0956
     17 H         138.0355  139.0966  157.9111 H       1  UNL1        0.1239
     18 C         141.0578  141.9902  167.8510 C.ar    1  UNL1        0.0025
     19 C         140.4359  142.9628  168.8087 C.ar    1  UNL1        0.0024
     20 C         141.2548  143.5477  169.9212 C.ar    1  UNL1        0.0296
     21 C         142.6955  143.1598  170.0758 C.ar    1  UNL1        0.1401
     22 F         143.5143  143.7446  171.1882 F       1  UNL1       -0.2042
     23 C         143.3174  142.1872  169.1181 C.ar    1  UNL1        0.0296
     24 C         142.4986  141.6024  168.0057 C.ar    1  UNL1        0.0024
@<TRIPOS>BOND
     1     1     2    1
     2     2     3   ar
     3     3     4   ar
     4     4     8    1
     5     8     9   ar
     6     9    10   ar
     7    10    11   ar
     8    11    12   ar
     9    12    13   ar
    10    12    14    1
    11    14    15    1
    12    15    16    1
    13     4     5   ar
    14     5     6    1
    15     5     7   ar
    16     7    18    1
    17    18    19   ar
    18    19    20   ar
    19    20    21   ar
    20    21    22    1
    21    21    23   ar
    22    23    24   ar
    23     7     2   ar
    24    24    18   ar
    25    13     8   ar
    26    16    11    1
    27    15    17    1
@<TRIPOS>MOLECULE
*****
 24 27 0 0 0
SMALL
GASTEIGER

@<TRIPOS>ATOM
      1 C         138.0833  138.3044  162.4064 C.3     1  UNL1        0.0540
      2 C         139.0362  139.0292  163.3101 C.ar    1  UNL1        0.0804
      3 N         138.7380  139.5166  164.6970 N.ar    1  UNL1       -0.1698
      4 N         139.9721  140.1825  165.2296 N.ar    1  UNL1       -0.2340
      5 C         141.0329  140.1067  164.1718 C.ar    1  UNL1        0.0620
      6 C         142.4274  140.6486  164.2811 C.3     1  UNL1        0.0522
      7 C         140.4545  139.3939  162.9855 C.ar    1  UNL1        0.0289
      8 C         140.1194  140.8136  166.5825 C.ar    1  UNL1        0.0821
      9 C         140.2818  142.2998  166.7032 C.ar    1  UNL1        0.0188
     10 C         140.4291  142.9308  168.0560 C.ar    1  UNL1       -0.0016
     11 C         140.4141  142.0754  169.2881 C.ar    1  UNL1       -0.0089
     12 C         140.2517  140.5891  169.1674 C.ar    1  UNL1       -0.0075
     13 C         140.1043  139.9582  167.8146 C.ar    1  UNL1        0.0159
     14 C         140.2741  140.0066  170.5495 C.3     1  UNL1        0.0957
     15 N         140.4504  141.1329  171.5244 N.3     1  UNL1       -0.2900
     16 C         140.5369  142.4115  170.7448 C.3     1  UNL1        0.0956
     17 H         141.3072  140.9958  172.0605 H       1  UNL1        0.1239
     18 C         141.1690  139.0979  161.7003 C.ar    1  UNL1        0.0025
     19 C         142.1425  137.9591  161.6284 C.ar    1  UNL1        0.0024
     20 C         142.8571  137.6631  160.3431 C.ar    1  UNL1        0.0296
     21 C         142.5980  138.5060  159.1298 C.ar    1  UNL1        0.1401
     22 F         143.3125  138.2100  157.8445 F       1  UNL1       -0.2042
     23 C         141.6245  139.6449  159.2015 C.ar    1  UNL1        0.0296
     24 C         140.9100  139.9408  160.4868 C.ar    1  UNL1        0.0024
@<TRIPOS>BOND
     1     1     2    1
     2     2     3   ar
     3     3     4   ar
     4     4     8    1
     5     8     9   ar
     6     9    10   ar
     7    10    11   ar
     8    11    12   ar
     9    12    13   ar
    10    12    14    1
    11    14    15    1
    12    15    16    1
    13     4     5   ar
    14     5     6    1
    15     5     7   ar
    16     7    18    1
    17    18    19   ar
    18    19    20   ar
    19    20    21   ar
    20    21    22    1
    21    21    23   ar
    22    23    24   ar
    23     7     2   ar
    24    24    18   ar
    25    13     8   ar
    26    16    11    1
    27    15    17    1
@<TRIPOS>MOLECULE
*****
 24 27 0 0 0
SMALL
GASTEIGER

@<TRIPOS>ATOM
      1 C         145.2679  141.7871  162.7988 C.3     1  UNL1        0.0540
      2 C         144.2416  141.2256  163.7377 C.ar    1  UNL1        0.0804
      3 N         144.0710  141.5958  165.1812 N.ar    1  UNL1       -0.1698
      4 N         142.9297  140.7943  165.7335 N.ar    1  UNL1       -0.2340
      5 C         142.3950  139.9287  164.6313 C.ar    1  UNL1        0.0620
      6 C         141.2504  138.9656  164.7430 C.3     1  UNL1        0.0522
      7 C         143.2058  140.1953  163.3978 C.ar    1  UNL1        0.0289
      8 C         142.4137  140.8488  167.1409 C.ar    1  UNL1        0.0821
      9 C         142.6411  139.6922  168.0685 C.ar    1  UNL1        0.0188
     10 C         142.1251  139.7467  169.4758 C.ar    1  UNL1       -0.0016
     11 C         141.3817  140.9580  169.9557 C.ar    1  UNL1       -0.0089
     12 C         141.1543  142.1147  169.0282 C.ar    1  UNL1       -0.0075
     13 C         141.6702  142.0601  167.6208 C.ar    1  UNL1        0.0159
     14 C         140.3924  143.1671  169.7778 C.3     1  UNL1        0.0957
     15 N         140.1491  142.6609  171.1686 N.3     1  UNL1       -0.2900
     16 C         140.7604  141.2955  171.2786 C.3     1  UNL1        0.0956
     17 H         139.1462  142.6064  171.3466 H       1  UNL1        0.1239
     18 C         143.0143  139.5455  162.0595 C.ar    1  UNL1        0.0025
     19 C         142.3233  140.2903  160.9560 C.ar    1  UNL1        0.0024
     20 C         142.1319  139.6404  159.6177 C.ar    1  UNL1        0.0296
     21 C         142.6315  138.2457  159.3829 C.ar    1  UNL1        0.1401
     22 F         142.4401  137.5958  158.0447 F       1  UNL1       -0.2042
     23 C         143.3225  137.5008  160.4864 C.ar    1  UNL1        0.0296
     24 C         143.5140  138.1507  161.8247 C.ar    1  UNL1        0.0024
@<TRIPOS>BOND
     1     1     2    1
     2     2     3   ar
     3     3     4   ar
     4     4     8    1
     5     8     9   ar
     6     9    10   ar
     7    10    11   ar
     8    11    12   ar
     9    12    13   ar
    10    12    14    1
    11    14    15    1
    12    15    16    1
    13     4     5   ar
    14     5     6    1
    15     5     7   ar
    16     7    18    1
    17    18    19   ar
    18    19    20   ar
    19    20    21   ar
    20    21    22    1
    21    21    23   ar
    22    23    24   ar
    23     7     2   ar
    24    24    18   ar
    25    13     8   ar
    26    16    11    1
    27    15    17    1
