@<TRIPOS>MOLECULE
*****
 34 38 0 0 0
SMALL
GASTEIGER

@<TRIPOS>ATOM
      1 N         139.6660  142.0441  160.9764 N.3     1  UNL1       -0.2695
      2 C         138.8087  141.9458  162.2033 C.3     1  UNL1        0.0939
      3 C         138.7665  140.6683  162.9883 C.3     1  UNL1        0.1107
      4 N         139.5816  139.4892  162.5463 N.am    1  UNL1       -0.2764
      5 C         139.5394  138.2117  163.3313 C.2     1  UNL1        0.2301
      6 O         140.3544  137.0326  162.8894 O.2     1  UNL1       -0.2745
      7 C         140.4389  139.5875  161.3194 C.3     1  UNL1        0.1107
      8 C         140.4811  140.8650  160.5344 C.3     1  UNL1        0.0939
      9 C         139.7082  143.3216  160.1914 C.3     1  UNL1        0.0765
     10 C         140.8234  144.3004  160.4111 C.3     1  UNL1        0.0380
     11 C         141.0032  145.4559  159.4717 C.3     1  UNL1        0.0061
     12 C         143.2818  142.6074  160.1102 C.3     1  UNL1        0.0305
     13 C         142.9881  143.2772  161.4199 C.ar    1  UNL1       -0.0260
     14 C         141.7589  144.1237  161.5704 C.ar    1  UNL1       -0.0253
     15 C         141.4652  144.7934  162.8800 C.ar    1  UNL1       -0.0044
     16 C         142.4006  144.6168  164.0392 C.ar    1  UNL1        0.0059
     17 C         143.6298  143.7703  163.8887 C.ar    1  UNL1        0.0748
     18 C         143.9235  143.1005  162.5791 C.ar    1  UNL1        0.0233
     19 C         145.2028  142.3317  162.7283 C.3     1  UNL1        0.2352
     20 O         145.6997  142.5264  164.1301 O.3     1  UNL1       -0.4404
     21 C         144.7276  143.4154  164.8473 C.2     1  UNL1        0.3413
     22 O         144.8344  143.8699  166.2728 O.2     1  UNL1       -0.2449
     23 C         138.6821  138.1132  164.5583 C.3     1  UNL1        0.1116
     24 C         139.1175  138.7743  165.8324 C.ar    1  UNL1       -0.0130
     25 C         138.1411  138.9507  166.9574 C.ar    1  UNL1       -0.0022
     26 C         138.5764  139.6117  168.2316 C.ar    1  UNL1        0.0190
     27 C         139.9880  140.0964  168.3808 C.ar    1  UNL1        0.0862
     28 C         140.9644  139.9200  167.2558 C.ar    1  UNL1        0.0190
     29 C         140.5291  139.2590  165.9816 C.ar    1  UNL1       -0.0022
     30 N         140.4235  140.7575  169.6550 N.ar    1  UNL1       -0.1886
     31 C         141.7728  140.6305  170.2978 C.ar    1  UNL1        0.2258
     32 N         141.7691  141.4562  171.5500 N.ar    1  UNL1       -0.1045
     33 N         140.4176  142.0934  171.6811 N.ar    1  UNL1       -0.0222
     34 N         139.5859  141.6617  170.5099 N.ar    1  UNL1       -0.0385
@<TRIPOS>BOND
     1    12    13    1
     2    13    14   ar
     3    14    10    1
     4    10    11    1
     5    10     9    1
     6     9     1    1
     7     1     2    1
     8     2     3    1
     9     3     4    1
    10     4     5   am
    11     5     6    2
    12     5    23    1
    13    23    24    1
    14    24    25   ar
    15    25    26   ar
    16    26    27   ar
    17    27    30    1
    18    30    31   ar
    19    31    32   ar
    20    32    33   ar
    21    33    34   ar
    22    27    28   ar
    23    28    29   ar
    24     4     7    1
    25     7     8    1
    26    14    15   ar
    27    15    16   ar
    28    16    17   ar
    29    17    18   ar
    30    18    19    1
    31    19    20    1
    32    20    21    1
    33    21    22    2
    34    18    13   ar
    35     8     1    1
    36    21    17    1
    37    29    24   ar
    38    34    30   ar
@<TRIPOS>MOLECULE
*****
 34 38 0 0 0
SMALL
GASTEIGER

@<TRIPOS>ATOM
      1 N         142.3709  142.0410  159.7325 N.3     1  UNL1       -0.2695
      2 C         142.0291  140.8269  160.5443 C.3     1  UNL1        0.0939
      3 C         142.9072  140.4194  161.6902 C.3     1  UNL1        0.1107
      4 N         144.1270  141.2260  162.0241 N.am    1  UNL1       -0.2764
      5 C         145.0050  140.8185  163.1700 C.2     1  UNL1        0.2301
      6 O         146.2247  141.6250  163.5040 O.2     1  UNL1       -0.2745
      7 C         144.4688  142.4401  161.2123 C.3     1  UNL1        0.1107
      8 C         143.5908  142.8477  160.0664 C.3     1  UNL1        0.0939
      9 C         141.4929  142.4485  158.5866 C.3     1  UNL1        0.0765
     10 C         140.2641  143.2709  158.8389 C.3     1  UNL1        0.0380
     11 C         139.4763  143.8159  157.6846 C.3     1  UNL1        0.0061
     12 C         138.3748  141.3914  160.2166 C.3     1  UNL1        0.0305
     13 C         138.8783  142.6085  160.9344 C.ar    1  UNL1       -0.0260
     14 C         139.8230  143.5483  160.2456 C.ar    1  UNL1       -0.0253
     15 C         140.3265  144.7653  160.9633 C.ar    1  UNL1       -0.0044
     16 C         139.8855  145.0427  162.3699 C.ar    1  UNL1        0.0059
     17 C         138.9408  144.1029  163.0587 C.ar    1  UNL1        0.0748
     18 C         138.4372  142.8859  162.3410 C.ar    1  UNL1        0.0233
     19 C         137.5207  142.1460  163.2698 C.3     1  UNL1        0.2352
     20 O         137.4579  142.9059  164.5616 O.3     1  UNL1       -0.4404
     21 C         138.3355  144.1153  164.4311 C.2     1  UNL1        0.3413
     22 O         138.5672  145.1546  165.4876 O.2     1  UNL1       -0.2449
     23 C         144.6633  139.6043  163.9819 C.3     1  UNL1        0.1116
     24 C         143.7895  139.7343  165.1942 C.ar    1  UNL1       -0.0130
     25 C         143.7462  138.6308  166.2093 C.ar    1  UNL1       -0.0022
     26 C         142.8725  138.7607  167.4216 C.ar    1  UNL1        0.0190
     27 C         142.0421  139.9942  167.6188 C.ar    1  UNL1        0.0862
     28 C         142.0854  141.0977  166.6038 C.ar    1  UNL1        0.0190
     29 C         142.9591  140.9678  165.3915 C.ar    1  UNL1       -0.0022
     30 N         141.1683  140.1242  168.8311 N.ar    1  UNL1       -0.1886
     31 C         141.6145  140.5520  170.1979 C.ar    1  UNL1        0.2258
     32 N         140.4168  140.5414  171.1009 N.ar    1  UNL1       -0.1045
     33 N         139.2304  140.1071  170.2922 N.ar    1  UNL1       -0.0222
     34 N         139.6948  139.8493  168.8895 N.ar    1  UNL1       -0.0385
@<TRIPOS>BOND
     1    12    13    1
     2    13    14   ar
     3    14    10    1
     4    10    11    1
     5    10     9    1
     6     9     1    1
     7     1     2    1
     8     2     3    1
     9     3     4    1
    10     4     5   am
    11     5     6    2
    12     5    23    1
    13    23    24    1
    14    24    25   ar
    15    25    26   ar
    16    26    27   ar
    17    27    30    1
    18    30    31   ar
    19    31    32   ar
    20    32    33   ar
    21    33    34   ar
    22    27    28   ar
    23    28    29   ar
    24     4     7    1
    25     7     8    1
    26    14    15   ar
    27    15    16   ar
    28    16    17   ar
    29    17    18   ar
    30    18    19    1
    31    19    20    1
    32    20    21    1
    33    21    22    2
    34    18    13   ar
    35     8     1    1
    36    21    17    1
    37    29    24   ar
    38    34    30   ar
@<TRIPOS>MOLECULE
*****
 34 38 0 0 0
SMALL
GASTEIGER

@<TRIPOS>ATOM
      1 N         140.8339  139.0511  161.2453 N.3     1  UNL1       -0.2695
      2 C         140.4832  138.5936  162.6300 C.3     1  UNL1        0.0939
      3 C         141.5073  138.6607  163.7239 C.3     1  UNL1        0.1107
      4 N         142.8821  139.1853  163.4331 N.am    1  UNL1       -0.2764
      5 C         143.9062  139.2524  164.5271 C.2     1  UNL1        0.2301
      6 O         145.2810  139.7770  164.2363 O.2     1  UNL1       -0.2745
      7 C         143.2329  139.6429  162.0483 C.3     1  UNL1        0.1107
      8 C         142.2088  139.5758  160.9544 C.3     1  UNL1        0.0939
      9 C         139.8099  138.9841  160.1513 C.3     1  UNL1        0.0765
     10 C         138.8556  140.1230  159.9465 C.3     1  UNL1        0.0380
     11 C         138.0983  140.2445  158.6574 C.3     1  UNL1        0.0061
     12 C         140.5467  142.6004  160.0041 C.3     1  UNL1        0.0305
     13 C         139.5040  142.3793  161.0596 C.ar    1  UNL1       -0.0260
     14 C         138.6585  141.1407  161.0308 C.ar    1  UNL1       -0.0253
     15 C         137.6159  140.9196  162.0863 C.ar    1  UNL1       -0.0044
     16 C         137.4188  141.9371  163.1706 C.ar    1  UNL1        0.0059
     17 C         138.2643  143.1758  163.1994 C.ar    1  UNL1        0.0748
     18 C         139.3069  143.3969  162.1439 C.ar    1  UNL1        0.0233
     19 C         139.9852  144.7040  162.4289 C.3     1  UNL1        0.2352
     20 O         139.3618  145.2908  163.6606 O.3     1  UNL1       -0.4404
     21 C         138.2982  144.3463  164.1368 C.2     1  UNL1        0.3413
     22 O         137.4223  144.5386  165.3392 O.2     1  UNL1       -0.2449
     23 C         143.5555  138.7948  165.9119 C.3     1  UNL1        0.1116
     24 C         142.8034  139.7069  166.8352 C.ar    1  UNL1       -0.0130
     25 C         142.5618  141.1352  166.4458 C.ar    1  UNL1       -0.0022
     26 C         141.8098  142.0473  167.3690 C.ar    1  UNL1        0.0190
     27 C         141.2994  141.5312  168.6817 C.ar    1  UNL1        0.0862
     28 C         141.5410  140.1029  169.0711 C.ar    1  UNL1        0.0190
     29 C         142.2930  139.1908  168.1479 C.ar    1  UNL1       -0.0022
     30 N         140.5473  142.4433  169.6051 N.ar    1  UNL1       -0.1886
     31 C         140.5881  143.9427  169.5895 C.ar    1  UNL1        0.2258
     32 N         139.6884  144.4421  170.6809 N.ar    1  UNL1       -0.1045
     33 N         139.0917  143.2514  171.3709 N.ar    1  UNL1       -0.0222
     34 N         139.6225  142.0161  170.7060 N.ar    1  UNL1       -0.0385
@<TRIPOS>BOND
     1    12    13    1
     2    13    14   ar
     3    14    10    1
     4    10    11    1
     5    10     9    1
     6     9     1    1
     7     1     2    1
     8     2     3    1
     9     3     4    1
    10     4     5   am
    11     5     6    2
    12     5    23    1
    13    23    24    1
    14    24    25   ar
    15    25    26   ar
    16    26    27   ar
    17    27    30    1
    18    30    31   ar
    19    31    32   ar
    20    32    33   ar
    21    33    34   ar
    22    27    28   ar
    23    28    29   ar
    24     4     7    1
    25     7     8    1
    26    14    15   ar
    27    15    16   ar
    28    16    17   ar
    29    17    18   ar
    30    18    19    1
    31    19    20    1
    32    20    21    1
    33    21    22    2
    34    18    13   ar
    35     8     1    1
    36    21    17    1
    37    29    24   ar
    38    34    30   ar
@<TRIPOS>MOLECULE
*****
 34 38 0 0 0
SMALL
GASTEIGER

@<TRIPOS>ATOM
      1 N         143.0064  139.7733  160.0817 N.3     1  UNL1       -0.2695
      2 C         143.5950  139.5503  161.4433 C.3     1  UNL1        0.0939
      3 C         142.7563  138.9532  162.5342 C.3     1  UNL1        0.1107
      4 N         141.3292  138.5790  162.2636 N.am    1  UNL1       -0.2764
      5 C         140.4906  137.9819  163.3545 C.2     1  UNL1        0.2301
      6 O         139.0634  137.6078  163.0839 O.2     1  UNL1       -0.2745
      7 C         140.7406  138.8020  160.9020 C.3     1  UNL1        0.1107
      8 C         141.5792  139.3991  159.8110 C.3     1  UNL1        0.0939
      9 C         143.8450  140.3704  158.9908 C.3     1  UNL1        0.0765
     10 C         144.0121  141.8584  158.9025 C.3     1  UNL1        0.0380
     11 C         145.1492  142.4401  158.1159 C.3     1  UNL1        0.0061
     12 C         144.6530  142.9226  161.6333 C.3     1  UNL1        0.0305
     13 C         143.3626  143.2969  160.9663 C.ar    1  UNL1       -0.0260
     14 C         143.0421  142.7648  159.6009 C.ar    1  UNL1       -0.0253
     15 C         141.7518  143.1391  158.9339 C.ar    1  UNL1       -0.0044
     16 C         140.7819  144.0454  159.6322 C.ar    1  UNL1        0.0059
     17 C         141.1023  144.5775  160.9976 C.ar    1  UNL1        0.0748
     18 C         142.3926  144.2033  161.6646 C.ar    1  UNL1        0.0233
     19 C         142.4347  144.8775  163.0039 C.3     1  UNL1        0.2352
     20 O         141.1704  145.6684  163.1646 O.3     1  UNL1       -0.4404
     21 C         140.3469  145.4831  161.9246 C.2     1  UNL1        0.3413
     22 O         139.0038  146.0957  161.6585 O.2     1  UNL1       -0.2449
     23 C         141.0791  137.7589  164.7162 C.3     1  UNL1        0.1116
     24 C         140.8564  138.7676  165.8038 C.ar    1  UNL1       -0.0130
     25 C         139.4605  139.1520  166.1958 C.ar    1  UNL1       -0.0022
     26 C         139.2378  140.1607  167.2834 C.ar    1  UNL1        0.0190
     27 C         140.4109  140.7849  167.9791 C.ar    1  UNL1        0.0862
     28 C         141.8069  140.4005  167.5871 C.ar    1  UNL1        0.0190
     29 C         142.0296  139.3918  166.4995 C.ar    1  UNL1       -0.0022
     30 N         140.1883  141.7936  169.0668 N.ar    1  UNL1       -0.1886
     31 C         140.4628  143.2654  168.9741 C.ar    1  UNL1        0.2258
     32 N         140.0962  143.8889  170.2881 N.ar    1  UNL1       -0.1045
     33 N         139.5952  142.8024  171.1930 N.ar    1  UNL1       -0.0222
     34 N         139.6521  141.5075  170.4381 N.ar    1  UNL1       -0.0385
@<TRIPOS>BOND
     1    12    13    1
     2    13    14   ar
     3    14    10    1
     4    10    11    1
     5    10     9    1
     6     9     1    1
     7     1     2    1
     8     2     3    1
     9     3     4    1
    10     4     5   am
    11     5     6    2
    12     5    23    1
    13    23    24    1
    14    24    25   ar
    15    25    26   ar
    16    26    27   ar
    17    27    30    1
    18    30    31   ar
    19    31    32   ar
    20    32    33   ar
    21    33    34   ar
    22    27    28   ar
    23    28    29   ar
    24     4     7    1
    25     7     8    1
    26    14    15   ar
    27    15    16   ar
    28    16    17   ar
    29    17    18   ar
    30    18    19    1
    31    19    20    1
    32    20    21    1
    33    21    22    2
    34    18    13   ar
    35     8     1    1
    36    21    17    1
    37    29    24   ar
    38    34    30   ar
@<TRIPOS>MOLECULE
*****
 34 38 0 0 0
SMALL
GASTEIGER

@<TRIPOS>ATOM
      1 N         138.8351  140.6529  160.5810 N.3     1  UNL1       -0.2695
      2 C         138.3644  141.4597  161.7546 C.3     1  UNL1        0.0939
      3 C         138.3013  140.8353  163.1170 C.3     1  UNL1        0.1107
      4 N         138.7089  139.4041  163.3057 N.am    1  UNL1       -0.2764
      5 C         138.6458  138.7798  164.6681 C.2     1  UNL1        0.2301
      6 O         139.0534  137.3486  164.8569 O.2     1  UNL1       -0.2745
      7 C         139.1796  138.5973  162.1320 C.3     1  UNL1        0.1107
      8 C         139.2427  139.2217  160.7696 C.3     1  UNL1        0.0939
      9 C         138.8982  141.2773  159.2185 C.3     1  UNL1        0.0765
     10 C         140.1662  141.9267  158.7492 C.3     1  UNL1        0.0380
     11 C         140.2513  142.4900  157.3616 C.3     1  UNL1        0.0061
     12 C         140.4984  144.3043  160.5484 C.3     1  UNL1        0.0305
     13 C         141.5153  143.2017  160.5671 C.ar    1  UNL1       -0.0260
     14 C         141.3492  142.0129  159.6675 C.ar    1  UNL1       -0.0253
     15 C         142.3660  140.9104  159.6862 C.ar    1  UNL1       -0.0044
     16 C         143.5490  140.9965  160.6044 C.ar    1  UNL1        0.0059
     17 C         143.7151  142.1852  161.5040 C.ar    1  UNL1        0.0748
     18 C         142.6983  143.2878  161.4853 C.ar    1  UNL1        0.0233
     19 C         143.1248  144.3286  162.4777 C.3     1  UNL1        0.2352
     20 O         144.4052  143.8693  163.1097 O.3     1  UNL1       -0.4404
     21 C         144.7701  142.5446  162.5079 C.2     1  UNL1        0.3413
     22 O         145.9778  141.7234  162.8501 O.2     1  UNL1       -0.2449
     23 C         138.1751  139.5866  165.8419 C.3     1  UNL1        0.1116
     24 C         139.1697  140.2996  166.7091 C.ar    1  UNL1       -0.0130
     25 C         139.3891  139.8508  168.1235 C.ar    1  UNL1       -0.0022
     26 C         140.3838  140.5638  168.9909 C.ar    1  UNL1        0.0190
     27 C         141.1590  141.7256  168.4438 C.ar    1  UNL1        0.0862
     28 C         140.9396  142.1744  167.0295 C.ar    1  UNL1        0.0190
     29 C         139.9450  141.4614  166.1621 C.ar    1  UNL1       -0.0022
     30 N         142.1538  142.4387  169.3111 N.ar    1  UNL1       -0.1886
     31 C         143.6419  142.2527  169.2823 C.ar    1  UNL1        0.2258
     32 N         144.2427  143.1620  170.3128 N.ar    1  UNL1       -0.1045
     33 N         143.1259  143.9099  170.9786 N.ar    1  UNL1       -0.0222
     34 N         141.8349  143.4629  170.3595 N.ar    1  UNL1       -0.0385
@<TRIPOS>BOND
     1    12    13    1
     2    13    14   ar
     3    14    10    1
     4    10    11    1
     5    10     9    1
     6     9     1    1
     7     1     2    1
     8     2     3    1
     9     3     4    1
    10     4     5   am
    11     5     6    2
    12     5    23    1
    13    23    24    1
    14    24    25   ar
    15    25    26   ar
    16    26    27   ar
    17    27    30    1
    18    30    31   ar
    19    31    32   ar
    20    32    33   ar
    21    33    34   ar
    22    27    28   ar
    23    28    29   ar
    24     4     7    1
    25     7     8    1
    26    14    15   ar
    27    15    16   ar
    28    16    17   ar
    29    17    18   ar
    30    18    19    1
    31    19    20    1
    32    20    21    1
    33    21    22    2
    34    18    13   ar
    35     8     1    1
    36    21    17    1
    37    29    24   ar
    38    34    30   ar
@<TRIPOS>MOLECULE
*****
 34 38 0 0 0
SMALL
GASTEIGER

@<TRIPOS>ATOM
      1 N         142.6984  138.1948  158.9152 N.3     1  UNL1       -0.2695
      2 C         142.9212  137.4129  160.1758 C.3     1  UNL1        0.0939
      3 C         143.5337  138.0782  161.3725 C.3     1  UNL1        0.1107
      4 N         143.9235  139.5253  161.3087 N.am    1  UNL1       -0.2764
      5 C         144.5360  140.1905  162.5055 C.2     1  UNL1        0.2301
      6 O         144.9258  141.6376  162.4416 O.2     1  UNL1       -0.2745
      7 C         143.7007  140.3071  160.0481 C.3     1  UNL1        0.1107
      8 C         143.0881  139.6419  158.8514 C.3     1  UNL1        0.0939
      9 C         142.0858  137.5296  157.7185 C.3     1  UNL1        0.0765
     10 C         142.9542  136.7862  156.7472 C.3     1  UNL1        0.0380
     11 C         143.8741  137.5408  155.8338 C.3     1  UNL1        0.0061
     12 C         141.0780  135.4222  154.8447 C.3     1  UNL1        0.0305
     13 C         141.9645  134.6061  155.7381 C.ar    1  UNL1       -0.0260
     14 C         142.9027  135.2881  156.6894 C.ar    1  UNL1       -0.0253
     15 C         143.7892  134.4722  157.5827 C.ar    1  UNL1       -0.0044
     16 C         143.7377  132.9742  157.5249 C.ar    1  UNL1        0.0059
     17 C         142.7996  132.2922  156.5737 C.ar    1  UNL1        0.0748
     18 C         141.9130  133.1082  155.6803 C.ar    1  UNL1        0.0233
     19 C         141.0957  132.1633  154.8501 C.3     1  UNL1        0.2352
     20 O         141.4771  130.7634  155.2305 O.3     1  UNL1       -0.4404
     21 C         142.5302  130.8430  156.2957 C.2     1  UNL1        0.3413
     22 O         143.1968  129.6780  156.9653 O.2     1  UNL1       -0.2449
     23 C         144.7589  139.4087  163.7661 C.3     1  UNL1        0.1116
     24 C         143.7748  139.5076  164.8938 C.ar    1  UNL1       -0.0130
     25 C         143.9016  138.6003  166.0816 C.ar    1  UNL1       -0.0022
     26 C         142.9176  138.6992  167.2093 C.ar    1  UNL1        0.0190
     27 C         141.8067  139.7054  167.1493 C.ar    1  UNL1        0.0862
     28 C         141.6799  140.6127  165.9616 C.ar    1  UNL1        0.0190
     29 C         142.6640  140.5138  164.8338 C.ar    1  UNL1       -0.0022
     30 N         140.8226  139.8043  168.2771 N.ar    1  UNL1       -0.1886
     31 C         141.1561  140.0423  169.7201 C.ar    1  UNL1        0.2258
     32 N         139.8717  140.0677  170.4945 N.ar    1  UNL1       -0.1045
     33 N         138.7445  139.8454  169.5302 N.ar    1  UNL1       -0.0222
     34 N         139.3321  139.6826  168.1598 N.ar    1  UNL1       -0.0385
@<TRIPOS>BOND
     1    12    13    1
     2    13    14   ar
     3    14    10    1
     4    10    11    1
     5    10     9    1
     6     9     1    1
     7     1     2    1
     8     2     3    1
     9     3     4    1
    10     4     5   am
    11     5     6    2
    12     5    23    1
    13    23    24    1
    14    24    25   ar
    15    25    26   ar
    16    26    27   ar
    17    27    30    1
    18    30    31   ar
    19    31    32   ar
    20    32    33   ar
    21    33    34   ar
    22    27    28   ar
    23    28    29   ar
    24     4     7    1
    25     7     8    1
    26    14    15   ar
    27    15    16   ar
    28    16    17   ar
    29    17    18   ar
    30    18    19    1
    31    19    20    1
    32    20    21    1
    33    21    22    2
    34    18    13   ar
    35     8     1    1
    36    21    17    1
    37    29    24   ar
    38    34    30   ar
@<TRIPOS>MOLECULE
*****
 34 38 0 0 0
SMALL
GASTEIGER

@<TRIPOS>ATOM
      1 N         141.8736  140.0991  159.7666 N.3     1  UNL1       -0.2695
      2 C         140.6994  140.5874  160.5622 C.3     1  UNL1        0.0939
      3 C         140.1913  139.7816  161.7208 C.3     1  UNL1        0.1107
      4 N         140.8573  138.4876  162.0840 N.am    1  UNL1       -0.2764
      5 C         140.3492  137.6818  163.2426 C.2     1  UNL1        0.2301
      6 O         141.0152  136.3878  163.6058 O.2     1  UNL1       -0.2745
      7 C         142.0315  137.9993  161.2884 C.3     1  UNL1        0.1107
      8 C         142.5396  138.8050  160.1297 C.3     1  UNL1        0.0939
      9 C         142.3817  140.9048  158.6079 C.3     1  UNL1        0.0765
     10 C         143.2706  142.0885  158.8500 C.3     1  UNL1        0.0380
     11 C         143.9402  142.7723  157.6950 C.3     1  UNL1        0.0061
     12 C         141.4947  144.2299  159.9729 C.3     1  UNL1        0.0305
     13 C         142.6019  143.6592  160.8087 C.ar    1  UNL1       -0.0260
     14 C         143.4899  142.5885  160.2472 C.ar    1  UNL1       -0.0253
     15 C         144.5971  142.0179  161.0828 C.ar    1  UNL1       -0.0044
     16 C         144.8164  142.5178  162.4799 C.ar    1  UNL1        0.0059
     17 C         143.9285  143.5885  163.0414 C.ar    1  UNL1        0.0748
     18 C         142.8212  144.1592  162.2058 C.ar    1  UNL1        0.0233
     19 C         142.1119  145.1979  163.0230 C.3     1  UNL1        0.2352
     20 O         142.7808  145.2692  164.3637 O.3     1  UNL1       -0.4404
     21 C         143.9035  144.2745  164.3751 C.2     1  UNL1        0.3413
     22 O         144.8372  144.0120  165.5193 O.2     1  UNL1       -0.2449
     23 C         139.1750  138.1701  164.0383 C.3     1  UNL1        0.1116
     24 C         139.3882  138.7840  165.3901 C.ar    1  UNL1       -0.0130
     25 C         138.2587  138.8381  166.3758 C.ar    1  UNL1       -0.0022
     26 C         138.4718  139.4520  167.7277 C.ar    1  UNL1        0.0190
     27 C         139.8143  140.0119  168.0939 C.ar    1  UNL1        0.0862
     28 C         140.9438  139.9578  167.1083 C.ar    1  UNL1        0.0190
     29 C         140.7307  139.3439  165.7564 C.ar    1  UNL1       -0.0022
     30 N         140.0275  140.6259  169.4459 N.ar    1  UNL1       -0.1886
     31 C         140.0452  142.0936  169.7548 C.ar    1  UNL1        0.2258
     32 N         140.2891  142.2546  171.2261 N.ar    1  UNL1       -0.1045
     33 N         140.4222  140.8864  171.8263 N.ar    1  UNL1       -0.0222
     34 N         140.2605  139.8798  170.7261 N.ar    1  UNL1       -0.0385
@<TRIPOS>BOND
     1    12    13    1
     2    13    14   ar
     3    14    10    1
     4    10    11    1
     5    10     9    1
     6     9     1    1
     7     1     2    1
     8     2     3    1
     9     3     4    1
    10     4     5   am
    11     5     6    2
    12     5    23    1
    13    23    24    1
    14    24    25   ar
    15    25    26   ar
    16    26    27   ar
    17    27    30    1
    18    30    31   ar
    19    31    32   ar
    20    32    33   ar
    21    33    34   ar
    22    27    28   ar
    23    28    29   ar
    24     4     7    1
    25     7     8    1
    26    14    15   ar
    27    15    16   ar
    28    16    17   ar
    29    17    18   ar
    30    18    19    1
    31    19    20    1
    32    20    21    1
    33    21    22    2
    34    18    13   ar
    35     8     1    1
    36    21    17    1
    37    29    24   ar
    38    34    30   ar
@<TRIPOS>MOLECULE
*****
 34 38 0 0 0
SMALL
GASTEIGER

@<TRIPOS>ATOM
      1 N         143.3682  139.5769  160.3895 N.3     1  UNL1       -0.2695
      2 C         144.0962  139.9807  161.6373 C.3     1  UNL1        0.0939
      3 C         143.7105  139.3822  162.9575 C.3     1  UNL1        0.1107
      4 N         142.5968  138.3800  163.0300 N.am    1  UNL1       -0.2764
      5 C         142.2112  137.7815  164.3503 C.2     1  UNL1        0.2301
      6 O         141.0975  136.7793  164.4227 O.2     1  UNL1       -0.2745
      7 C         141.8688  137.9762  161.7822 C.3     1  UNL1        0.1107
      8 C         142.2544  138.5747  160.4620 C.3     1  UNL1        0.0939
      9 C         143.7538  140.1754  159.0693 C.3     1  UNL1        0.0765
     10 C         143.1303  141.4631  158.6188 C.3     1  UNL1        0.0380
     11 C         143.4676  142.0287  157.2711 C.3     1  UNL1        0.0061
     12 C         140.2037  140.8111  158.5169 C.3     1  UNL1        0.0305
     13 C         140.7059  141.8593  159.4651 C.ar    1  UNL1       -0.0260
     14 C         142.1692  142.1853  159.5161 C.ar    1  UNL1       -0.0253
     15 C         142.6715  143.2335  160.4642 C.ar    1  UNL1       -0.0044
     16 C         141.7106  143.9557  161.3614 C.ar    1  UNL1        0.0059
     17 C         140.2473  143.6297  161.3104 C.ar    1  UNL1        0.0748
     18 C         139.7450  142.5815  160.3623 C.ar    1  UNL1        0.0233
     19 C         138.2587  142.4751  160.5339 C.3     1  UNL1        0.2352
     20 O         137.8424  143.4576  161.5882 O.3     1  UNL1       -0.4404
     21 C         139.0714  144.1711  162.0681 C.2     1  UNL1        0.3413
     22 O         139.1166  145.2387  163.1208 O.2     1  UNL1       -0.2449
     23 C         142.9392  138.1852  165.5981 C.3     1  UNL1        0.1116
     24 C         142.3249  139.1820  166.5356 C.ar    1  UNL1       -0.0130
     25 C         142.8084  139.2760  167.9524 C.ar    1  UNL1       -0.0022
     26 C         142.1941  140.2728  168.8900 C.ar    1  UNL1        0.0190
     27 C         141.0963  141.1756  168.4107 C.ar    1  UNL1        0.0862
     28 C         140.6128  141.0816  166.9939 C.ar    1  UNL1        0.0190
     29 C         141.2270  140.0848  166.0563 C.ar    1  UNL1       -0.0022
     30 N         140.4819  142.1725  169.3482 N.ar    1  UNL1       -0.1886
     31 C         140.6532  143.6615  169.2880 C.ar    1  UNL1        0.2258
     32 N         139.8655  144.2645  170.4131 N.ar    1  UNL1       -0.1045
     33 N         139.2074  143.1482  171.1686 N.ar    1  UNL1       -0.0222
     34 N         139.5883  141.8553  170.5105 N.ar    1  UNL1       -0.0385
@<TRIPOS>BOND
     1    12    13    1
     2    13    14   ar
     3    14    10    1
     4    10    11    1
     5    10     9    1
     6     9     1    1
     7     1     2    1
     8     2     3    1
     9     3     4    1
    10     4     5   am
    11     5     6    2
    12     5    23    1
    13    23    24    1
    14    24    25   ar
    15    25    26   ar
    16    26    27   ar
    17    27    30    1
    18    30    31   ar
    19    31    32   ar
    20    32    33   ar
    21    33    34   ar
    22    27    28   ar
    23    28    29   ar
    24     4     7    1
    25     7     8    1
    26    14    15   ar
    27    15    16   ar
    28    16    17   ar
    29    17    18   ar
    30    18    19    1
    31    19    20    1
    32    20    21    1
    33    21    22    2
    34    18    13   ar
    35     8     1    1
    36    21    17    1
    37    29    24   ar
    38    34    30   ar
@<TRIPOS>MOLECULE
*****
 34 38 0 0 0
SMALL
GASTEIGER

@<TRIPOS>ATOM
      1 N         140.3782  138.8833  160.1373 N.3     1  UNL1       -0.2695
      2 C         140.5474  138.1279  161.4221 C.3     1  UNL1        0.0939
      3 C         139.7463  138.5138  162.6300 C.3     1  UNL1        0.1107
      4 N         138.7759  139.6551  162.5532 N.am    1  UNL1       -0.2764
      5 C         137.9747  140.0409  163.7612 C.2     1  UNL1        0.2301
      6 O         137.0044  141.1822  163.6844 O.2     1  UNL1       -0.2745
      7 C         138.6066  140.4105  161.2684 C.3     1  UNL1        0.1107
      8 C         139.4078  140.0246  160.0604 C.3     1  UNL1        0.0939
      9 C         141.1793  138.4974  158.9293 C.3     1  UNL1        0.0765
     10 C         142.3949  139.2906  158.5509 C.3     1  UNL1        0.0380
     11 C         143.1217  138.9862  157.2744 C.3     1  UNL1        0.0061
     12 C         144.1510  138.6404  160.8948 C.3     1  UNL1        0.0305
     13 C         143.7619  140.0630  160.6209 C.ar    1  UNL1       -0.0260
     14 C         142.8839  140.3881  159.4489 C.ar    1  UNL1       -0.0253
     15 C         142.4949  141.8106  159.1751 C.ar    1  UNL1       -0.0044
     16 C         142.9838  142.9081  160.0731 C.ar    1  UNL1        0.0059
     17 C         143.8618  142.5830  161.2450 C.ar    1  UNL1        0.0748
     18 C         144.2509  141.1605  161.5189 C.ar    1  UNL1        0.0233
     19 C         145.1217  141.1450  162.7402 C.3     1  UNL1        0.2352
     20 O         145.2708  142.5580  163.2210 O.3     1  UNL1       -0.4404
     21 C         144.4921  143.4468  162.2970 C.2     1  UNL1        0.3413
     22 O         144.3660  144.9375  162.4058 O.2     1  UNL1       -0.2449
     23 C         138.1439  139.2856  165.0461 C.3     1  UNL1        0.1116
     24 C         138.8694  139.9168  166.1972 C.ar    1  UNL1       -0.0130
     25 C         138.6770  139.3858  167.5868 C.ar    1  UNL1       -0.0022
     26 C         139.4025  140.0170  168.7380 C.ar    1  UNL1        0.0190
     27 C         140.3204  141.1792  168.4996 C.ar    1  UNL1        0.0862
     28 C         140.5127  141.7102  167.1100 C.ar    1  UNL1        0.0190
     29 C         139.7873  141.0790  165.9588 C.ar    1  UNL1       -0.0022
     30 N         141.0459  141.8104  169.6508 N.ar    1  UNL1       -0.1886
     31 C         141.0141  141.3434  171.0759 C.ar    1  UNL1        0.2258
     32 N         141.8792  142.2639  171.8847 N.ar    1  UNL1       -0.1045
     33 N         142.4456  143.2999  170.9595 N.ar    1  UNL1       -0.0222
     34 N         141.9306  143.0196  169.5789 N.ar    1  UNL1       -0.0385
@<TRIPOS>BOND
     1    12    13    1
     2    13    14   ar
     3    14    10    1
     4    10    11    1
     5    10     9    1
     6     9     1    1
     7     1     2    1
     8     2     3    1
     9     3     4    1
    10     4     5   am
    11     5     6    2
    12     5    23    1
    13    23    24    1
    14    24    25   ar
    15    25    26   ar
    16    26    27   ar
    17    27    30    1
    18    30    31   ar
    19    31    32   ar
    20    32    33   ar
    21    33    34   ar
    22    27    28   ar
    23    28    29   ar
    24     4     7    1
    25     7     8    1
    26    14    15   ar
    27    15    16   ar
    28    16    17   ar
    29    17    18   ar
    30    18    19    1
    31    19    20    1
    32    20    21    1
    33    21    22    2
    34    18    13   ar
    35     8     1    1
    36    21    17    1
    37    29    24   ar
    38    34    30   ar
