@<TRIPOS>MOLECULE
*****
 31 33 0 0 0
SMALL
GASTEIGER

@<TRIPOS>ATOM
      1 C         137.8137  139.9860  163.8166 C.ar    1  UNL1        0.1409
      2 N         137.8978  140.0463  165.3131 N.ar    1  UNL1       -0.1986
      3 C         138.5844  138.9487  166.0705 C.ar    1  UNL1        0.2181
      4 N         139.1870  137.7907  165.3315 N.ar    1  UNL1       -0.2120
      5 C         139.1029  137.7304  163.8351 C.ar    1  UNL1        0.1091
      6 C         138.4163  138.8281  163.0776 C.ar    1  UNL1        0.1040
      7 C         138.3322  138.7678  161.5812 C.2     1  UNL1        0.2470
      8 N         139.4467  138.1476  160.7918 N.am    1  UNL1       -0.3252
      9 O         137.1336  139.3276  160.8743 O.2     1  UNL1       -0.2702
     10 H         140.2334  137.7801  161.2558 H       1  UNL1        0.1453
     11 H         139.3915  138.1080  159.8097 H       1  UNL1        0.1453
     12 N         137.1270  141.0836  163.0592 N.pl3   1  UNL1       -0.2977
     13 H         136.2027  140.9602  162.7436 H       1  UNL1        0.1536
     14 C         140.0136  146.2260  161.9532 C.3     1  UNL1        0.0310
     15 C         139.2920  144.9404  162.2297 C.ar    1  UNL1       -0.0218
     16 C         139.3032  143.8399  161.2106 C.ar    1  UNL1       -0.0030
     17 C         138.5816  142.5543  161.4871 C.ar    1  UNL1        0.0143
     18 C         137.8487  142.3692  162.7827 C.ar    1  UNL1        0.0493
     19 C         137.8374  143.4698  163.8018 C.ar    1  UNL1        0.0143
     20 C         138.5591  144.7554  163.5253 C.ar    1  UNL1       -0.0030
     21 N         138.6685  139.0089  167.5670 N.pl3   1  UNL1       -0.3031
     22 H         138.1785  138.3536  168.1144 H       1  UNL1        0.1496
     23 C         139.4993  140.0677  168.2294 C.3     1  UNL1        0.0908
     24 C         140.6389  140.7005  167.4871 C.3     1  UNL1        0.0531
     25 C         141.4697  141.7592  168.1495 C.3     1  UNL1        0.1440
     26 O         141.1609  142.1852  169.5543 O.3     1  UNL1       -0.3522
     27 C         140.0214  141.5524  170.2965 C.3     1  UNL1        0.1592
     28 C         139.1906  140.4937  169.6341 C.3     1  UNL1        0.0990
     29 N         138.0510  139.8609  170.3763 N.3     1  UNL1       -0.3189
     30 H         137.5995  139.1679  169.7794 H       1  UNL1        0.1189
     31 H         137.3743  140.5785  170.6362 H       1  UNL1        0.1189
@<TRIPOS>BOND
     1    14    15    1
     2    15    16   ar
     3    16    17   ar
     4    17    18   ar
     5    18    12    1
     6    12     1    1
     7     1     2   ar
     8     2     3   ar
     9     3    21    1
    10    23    21    1
    11    23    24    1
    12    24    25    1
    13    25    26    1
    14    26    27    1
    15    27    28    1
    16    28    29    1
    17     3     4   ar
    18     4     5   ar
    19     5     6   ar
    20     6     7    1
    21     7     8   am
    22     7     9    2
    23    18    19   ar
    24    19    20   ar
    25    20    15   ar
    26     6     1   ar
    27    28    23    1
    28    12    13    1
    29    21    22    1
    30    29    30    1
    31    29    31    1
    32     8    10    1
    33     8    11    1
@<TRIPOS>MOLECULE
*****
 31 33 0 0 0
SMALL
GASTEIGER

@<TRIPOS>ATOM
      1 C         140.4152  139.7099  166.7372 C.ar    1  UNL1        0.1409
      2 N         140.1915  138.9252  165.4785 N.ar    1  UNL1       -0.1986
      3 C         138.8856  138.2217  165.2554 C.ar    1  UNL1        0.2181
      4 N         137.8035  138.3029  166.2910 N.ar    1  UNL1       -0.2120
      5 C         138.0272  139.0876  167.5496 C.ar    1  UNL1        0.1091
      6 C         139.3331  139.7912  167.7727 C.ar    1  UNL1        0.1040
      7 C         139.5568  140.5759  169.0313 C.2     1  UNL1        0.2470
      8 N         139.1949  139.9814  170.3601 N.am    1  UNL1       -0.3252
      9 O         140.1423  141.9551  168.9611 O.2     1  UNL1       -0.2702
     10 H         138.8106  139.0762  170.4061 H       1  UNL1        0.1453
     11 H         139.3417  140.4965  171.1862 H       1  UNL1        0.1453
     12 N         141.7211  140.4134  166.9602 N.pl3   1  UNL1       -0.2977
     13 H         142.3278  140.1105  167.6739 H       1  UNL1        0.1536
     14 C         143.2471  145.0738  163.5030 C.3     1  UNL1        0.0310
     15 C         142.8656  143.9087  164.3673 C.ar    1  UNL1       -0.0218
     16 C         141.4225  143.6523  164.6863 C.ar    1  UNL1       -0.0030
     17 C         141.0410  142.4872  165.5506 C.ar    1  UNL1        0.0143
     18 C         142.1026  141.5785  166.0959 C.ar    1  UNL1        0.0493
     19 C         143.5456  141.8349  165.7769 C.ar    1  UNL1        0.0143
     20 C         143.9271  143.0000  164.9126 C.ar    1  UNL1       -0.0030
     21 N         138.6619  137.4369  163.9968 N.pl3   1  UNL1       -0.3031
     22 H         138.3265  136.5126  164.0460 H       1  UNL1        0.1496
     23 C         138.9492  138.0605  162.6631 C.3     1  UNL1        0.0908
     24 C         137.8887  138.8589  161.9644 C.3     1  UNL1        0.0531
     25 C         138.1760  139.4824  160.6308 C.3     1  UNL1        0.1440
     26 O         139.5237  139.3076  159.9958 O.3     1  UNL1       -0.3522
     27 C         140.5841  138.5091  160.6944 C.3     1  UNL1        0.1592
     28 C         140.2968  137.8856  162.0281 C.3     1  UNL1        0.0990
     29 N         141.3571  137.0872  162.7268 N.3     1  UNL1       -0.3189
     30 H         140.9923  136.7401  163.6138 H       1  UNL1        0.1189
     31 H         142.1690  137.6795  162.9014 H       1  UNL1        0.1189
@<TRIPOS>BOND
     1    14    15    1
     2    15    16   ar
     3    16    17   ar
     4    17    18   ar
     5    18    12    1
     6    12     1    1
     7     1     2   ar
     8     2     3   ar
     9     3    21    1
    10    23    21    1
    11    23    24    1
    12    24    25    1
    13    25    26    1
    14    26    27    1
    15    27    28    1
    16    28    29    1
    17     3     4   ar
    18     4     5   ar
    19     5     6   ar
    20     6     7    1
    21     7     8   am
    22     7     9    2
    23    18    19   ar
    24    19    20   ar
    25    20    15   ar
    26     6     1   ar
    27    28    23    1
    28    12    13    1
    29    21    22    1
    30    29    30    1
    31    29    31    1
    32     8    10    1
    33     8    11    1
@<TRIPOS>MOLECULE
*****
 31 33 0 0 0
SMALL
GASTEIGER

@<TRIPOS>ATOM
      1 C         141.8967  140.0128  167.5584 C.ar    1  UNL1        0.1409
      2 N         140.7167  139.6893  166.6905 N.ar    1  UNL1       -0.1986
      3 C         139.3448  139.6048  167.2910 C.ar    1  UNL1        0.2181
      4 N         139.1528  139.8437  168.7593 N.ar    1  UNL1       -0.2120
      5 C         140.3326  140.1671  169.6272 C.ar    1  UNL1        0.1091
      6 C         141.7047  140.2516  169.0267 C.ar    1  UNL1        0.1040
      7 C         142.8845  140.5750  169.8946 C.2     1  UNL1        0.2470
      8 N         143.2798  139.6425  171.0010 N.am    1  UNL1       -0.3252
      9 O         143.6692  141.8309  169.6560 O.2     1  UNL1       -0.2702
     10 H         142.7648  138.8182  171.1576 H       1  UNL1        0.1453
     11 H         144.0542  139.8548  171.5707 H       1  UNL1        0.1453
     12 N         143.2686  140.0973  166.9579 N.pl3   1  UNL1       -0.2977
     13 H         143.9921  139.5241  167.3005 H       1  UNL1        0.1536
     14 C         144.3475  143.9285  162.4682 C.3     1  UNL1        0.0310
     15 C         144.0778  142.9707  163.5906 C.ar    1  UNL1       -0.0218
     16 C         143.7144  143.4911  164.9496 C.ar    1  UNL1       -0.0030
     17 C         143.4447  142.5333  166.0721 C.ar    1  UNL1        0.0143
     18 C         143.5384  141.0551  165.8355 C.ar    1  UNL1        0.0493
     19 C         143.9018  140.5347  164.4764 C.ar    1  UNL1        0.0143
     20 C         144.1715  141.4925  163.3540 C.ar    1  UNL1       -0.0030
     21 N         138.1648  139.2814  166.4231 N.pl3   1  UNL1       -0.3031
     22 H         137.2722  139.1765  166.8249 H       1  UNL1        0.1496
     23 C         138.3449  139.1178  164.9429 C.3     1  UNL1        0.0908
     24 C         138.8273  137.8112  164.3859 C.3     1  UNL1        0.0531
     25 C         139.0074  137.6477  162.9058 C.3     1  UNL1        0.1440
     26 O         138.7051  138.7908  161.9826 O.3     1  UNL1       -0.3522
     27 C         138.2227  140.0973  162.5397 C.3     1  UNL1        0.1592
     28 C         138.0426  140.2608  164.0198 C.3     1  UNL1        0.0990
     29 N         137.5603  141.5673  164.5768 N.3     1  UNL1       -0.3189
     30 H         137.4962  141.5009  165.5926 H       1  UNL1        0.1189
     31 H         136.6407  141.7824  164.1915 H       1  UNL1        0.1189
@<TRIPOS>BOND
     1    14    15    1
     2    15    16   ar
     3    16    17   ar
     4    17    18   ar
     5    18    12    1
     6    12     1    1
     7     1     2   ar
     8     2     3   ar
     9     3    21    1
    10    23    21    1
    11    23    24    1
    12    24    25    1
    13    25    26    1
    14    26    27    1
    15    27    28    1
    16    28    29    1
    17     3     4   ar
    18     4     5   ar
    19     5     6   ar
    20     6     7    1
    21     7     8   am
    22     7     9    2
    23    18    19   ar
    24    19    20   ar
    25    20    15   ar
    26     6     1   ar
    27    28    23    1
    28    12    13    1
    29    21    22    1
    30    29    30    1
    31    29    31    1
    32     8    10    1
    33     8    11    1
@<TRIPOS>MOLECULE
*****
 31 33 0 0 0
SMALL
GASTEIGER

@<TRIPOS>ATOM
      1 C         140.4041  139.8911  167.0346 C.ar    1  UNL1        0.1409
      2 N         141.4923  139.4392  166.1062 N.ar    1  UNL1       -0.1986
      3 C         142.8230  139.0210  166.6578 C.ar    1  UNL1        0.2181
      4 N         143.0656  139.0547  168.1376 N.ar    1  UNL1       -0.2120
      5 C         141.9775  139.5066  169.0660 C.ar    1  UNL1        0.1091
      6 C         140.6467  139.9248  168.5144 C.ar    1  UNL1        0.1040
      7 C         139.5586  140.3766  169.4428 C.2     1  UNL1        0.2470
      8 N         139.7810  141.5578  170.3403 N.am    1  UNL1       -0.3252
      9 O         138.2482  139.6474  169.4736 O.2     1  UNL1       -0.2702
     10 H         140.6410  142.0364  170.3200 H       1  UNL1        0.1453
     11 H         139.0668  141.8544  170.9496 H       1  UNL1        0.1453
     12 N         139.0734  140.3093  166.4830 N.pl3   1  UNL1       -0.2977
     13 H         138.2605  139.8103  166.7272 H       1  UNL1        0.1536
     14 C         138.7040  145.0227  162.7889 C.3     1  UNL1        0.0310
     15 C         138.7964  143.8444  163.7124 C.ar    1  UNL1       -0.0218
     16 C         139.7673  143.8617  164.8557 C.ar    1  UNL1       -0.0030
     17 C         139.8596  142.6833  165.7792 C.ar    1  UNL1        0.0143
     18 C         138.9810  141.4876  165.5595 C.ar    1  UNL1        0.0493
     19 C         138.0101  141.4703  164.4163 C.ar    1  UNL1        0.0143
     20 C         137.9178  142.6487  163.4928 C.ar    1  UNL1       -0.0030
     21 N         143.9112  138.5691  165.7294 N.pl3   1  UNL1       -0.3031
     22 H         144.4855  137.8089  165.9773 H       1  UNL1        0.1496
     23 C         144.1242  139.2754  164.4234 C.3     1  UNL1        0.0908
     24 C         145.0907  140.4195  164.3384 C.3     1  UNL1        0.0531
     25 C         145.3037  141.1258  163.0324 C.3     1  UNL1        0.1440
     26 O         144.5502  140.6882  161.8114 O.3     1  UNL1       -0.3522
     27 C         143.5838  139.5442  161.8964 C.3     1  UNL1        0.1592
     28 C         143.3707  138.8378  163.2025 C.3     1  UNL1        0.0990
     29 N         142.4043  137.6939  163.2875 N.3     1  UNL1       -0.3189
     30 H         142.3853  137.3351  164.2421 H       1  UNL1        0.1189
     31 H         142.6981  136.9526  162.6515 H       1  UNL1        0.1189
@<TRIPOS>BOND
     1    14    15    1
     2    15    16   ar
     3    16    17   ar
     4    17    18   ar
     5    18    12    1
     6    12     1    1
     7     1     2   ar
     8     2     3   ar
     9     3    21    1
    10    23    21    1
    11    23    24    1
    12    24    25    1
    13    25    26    1
    14    26    27    1
    15    27    28    1
    16    28    29    1
    17     3     4   ar
    18     4     5   ar
    19     5     6   ar
    20     6     7    1
    21     7     8   am
    22     7     9    2
    23    18    19   ar
    24    19    20   ar
    25    20    15   ar
    26     6     1   ar
    27    28    23    1
    28    12    13    1
    29    21    22    1
    30    29    30    1
    31    29    31    1
    32     8    10    1
    33     8    11    1
@<TRIPOS>MOLECULE
*****
 31 33 0 0 0
SMALL
GASTEIGER

@<TRIPOS>ATOM
      1 C         140.6034  139.1954  165.5829 C.ar    1  UNL1        0.1409
      2 N         140.4117  139.8456  166.9211 N.ar    1  UNL1       -0.1986
      3 C         139.1763  139.5613  167.7229 C.ar    1  UNL1        0.2181
      4 N         138.1326  138.6270  167.1867 N.ar    1  UNL1       -0.2120
      5 C         138.3243  137.9768  165.8486 C.ar    1  UNL1        0.1091
      6 C         139.5597  138.2610  165.0467 C.ar    1  UNL1        0.1040
      7 C         139.7514  137.6108  163.7086 C.2     1  UNL1        0.2470
      8 N         138.6224  137.5790  162.7216 N.am    1  UNL1       -0.3252
      9 O         141.0721  136.9924  163.3576 O.2     1  UNL1       -0.2702
     10 H         137.7555  137.9849  162.9520 H       1  UNL1        0.1453
     11 H         138.7482  137.1523  161.8433 H       1  UNL1        0.1453
     12 N         141.8388  139.4796  164.7811 N.pl3   1  UNL1       -0.2977
     13 H         142.3520  138.7371  164.3878 H       1  UNL1        0.1536
     14 C         143.6528  145.1410  163.9705 C.3     1  UNL1        0.0310
     15 C         143.1993  143.7257  164.1731 C.ar    1  UNL1       -0.0218
     16 C         141.9488  143.2358  163.5051 C.ar    1  UNL1       -0.0030
     17 C         141.4953  141.8205  163.7078 C.ar    1  UNL1        0.0143
     18 C         142.2923  140.8949  164.5785 C.ar    1  UNL1        0.0493
     19 C         143.5428  141.3848  165.2465 C.ar    1  UNL1        0.0143
     20 C         143.9963  142.8001  165.0438 C.ar    1  UNL1       -0.0030
     21 N         138.9846  140.2115  169.0611 N.pl3   1  UNL1       -0.3031
     22 H         138.1641  140.0416  169.5779 H       1  UNL1        0.1496
     23 C         140.0431  141.1206  169.6117 C.3     1  UNL1        0.0908
     24 C         139.9614  142.5990  169.3712 C.3     1  UNL1        0.0531
     25 C         141.0199  143.5080  169.9219 C.3     1  UNL1        0.1440
     26 O         142.1601  142.9387  170.7131 O.3     1  UNL1       -0.3522
     27 C         142.2417  141.4603  170.9536 C.3     1  UNL1        0.1592
     28 C         141.1832  140.5513  170.4029 C.3     1  UNL1        0.0990
     29 N         141.2648  139.0730  170.6434 N.3     1  UNL1       -0.3189
     30 H         140.4695  138.6122  170.2012 H       1  UNL1        0.1189
     31 H         141.2489  138.8904  171.6468 H       1  UNL1        0.1189
@<TRIPOS>BOND
     1    14    15    1
     2    15    16   ar
     3    16    17   ar
     4    17    18   ar
     5    18    12    1
     6    12     1    1
     7     1     2   ar
     8     2     3   ar
     9     3    21    1
    10    23    21    1
    11    23    24    1
    12    24    25    1
    13    25    26    1
    14    26    27    1
    15    27    28    1
    16    28    29    1
    17     3     4   ar
    18     4     5   ar
    19     5     6   ar
    20     6     7    1
    21     7     8   am
    22     7     9    2
    23    18    19   ar
    24    19    20   ar
    25    20    15   ar
    26     6     1   ar
    27    28    23    1
    28    12    13    1
    29    21    22    1
    30    29    30    1
    31    29    31    1
    32     8    10    1
    33     8    11    1
@<TRIPOS>MOLECULE
*****
 31 33 0 0 0
SMALL
GASTEIGER

@<TRIPOS>ATOM
      1 C         140.7547  140.7506  167.4376 C.ar    1  UNL1        0.1409
      2 N         141.8008  140.8947  166.3721 N.ar    1  UNL1       -0.1986
      3 C         143.0016  141.7609  166.6123 C.ar    1  UNL1        0.2181
      4 N         143.1565  142.4829  167.9180 N.ar    1  UNL1       -0.2120
      5 C         142.1105  142.3388  168.9834 C.ar    1  UNL1        0.1091
      6 C         140.9096  141.4726  168.7432 C.ar    1  UNL1        0.1040
      7 C         139.8637  141.3286  169.8086 C.2     1  UNL1        0.2470
      8 N         139.4995  142.5042  170.6661 N.am    1  UNL1       -0.3252
      9 O         139.1818  140.0088  170.0166 O.2     1  UNL1       -0.2702
     10 H         139.9471  143.3704  170.5296 H       1  UNL1        0.1453
     11 H         138.8130  142.4096  171.3654 H       1  UNL1        0.1453
     12 N         139.5539  139.8844  167.1974 N.pl3   1  UNL1       -0.2977
     13 H         139.0484  139.5213  167.9602 H       1  UNL1        0.1536
     14 C         137.8315  138.6326  161.5879 C.3     1  UNL1        0.0310
     15 C         138.2621  138.9455  162.9903 C.ar    1  UNL1       -0.0218
     16 C         137.9663  140.2913  163.5830 C.ar    1  UNL1       -0.0030
     17 C         138.3969  140.6043  164.9854 C.ar    1  UNL1        0.0143
     18 C         139.1233  139.5715  165.7950 C.ar    1  UNL1        0.0493
     19 C         139.4192  138.2257  165.2023 C.ar    1  UNL1        0.0143
     20 C         138.9885  137.9127  163.7999 C.ar    1  UNL1       -0.0030
     21 N         144.0476  141.9050  165.5469 N.pl3   1  UNL1       -0.3031
     22 H         144.9056  141.4298  165.6319 H       1  UNL1        0.1496
     23 C         143.7864  142.7732  164.3519 C.3     1  UNL1        0.0908
     24 C         142.5693  143.6493  164.3131 C.3     1  UNL1        0.0531
     25 C         142.3080  144.5175  163.1181 C.3     1  UNL1        0.1440
     26 O         143.2638  144.5097  161.9620 O.3     1  UNL1       -0.3522
     27 C         144.4808  143.6336  162.0009 C.3     1  UNL1        0.1592
     28 C         144.7420  142.7654  163.1958 C.3     1  UNL1        0.0990
     29 N         145.9590  141.8894  163.2347 N.3     1  UNL1       -0.3189
     30 H         145.9778  141.3724  164.1138 H       1  UNL1        0.1189
     31 H         146.7964  142.4673  163.1622 H       1  UNL1        0.1189
@<TRIPOS>BOND
     1    14    15    1
     2    15    16   ar
     3    16    17   ar
     4    17    18   ar
     5    18    12    1
     6    12     1    1
     7     1     2   ar
     8     2     3   ar
     9     3    21    1
    10    23    21    1
    11    23    24    1
    12    24    25    1
    13    25    26    1
    14    26    27    1
    15    27    28    1
    16    28    29    1
    17     3     4   ar
    18     4     5   ar
    19     5     6   ar
    20     6     7    1
    21     7     8   am
    22     7     9    2
    23    18    19   ar
    24    19    20   ar
    25    20    15   ar
    26     6     1   ar
    27    28    23    1
    28    12    13    1
    29    21    22    1
    30    29    30    1
    31    29    31    1
    32     8    10    1
    33     8    11    1
@<TRIPOS>MOLECULE
*****
 31 33 0 0 0
SMALL
GASTEIGER

@<TRIPOS>ATOM
      1 C         141.0233  141.7369  166.9901 C.ar    1  UNL1        0.1409
      2 N         140.1668  140.7984  166.1927 N.ar    1  UNL1       -0.1986
      3 C         139.2557  139.8352  166.8942 C.ar    1  UNL1        0.2181
      4 N         139.2010  139.8105  168.3930 N.ar    1  UNL1       -0.2120
      5 C         140.0574  140.7490  169.1903 C.ar    1  UNL1        0.1091
      6 C         140.9686  141.7122  168.4889 C.ar    1  UNL1        0.1040
      7 C         141.8251  142.6506  169.2862 C.2     1  UNL1        0.2470
      8 N         141.1949  143.5775  170.2831 N.am    1  UNL1       -0.3252
      9 O         143.3116  142.6622  169.0867 O.2     1  UNL1       -0.2702
     10 H         140.2192  143.5700  170.4140 H       1  UNL1        0.1453
     11 H         141.7570  144.1935  170.8064 H       1  UNL1        0.1453
     12 N         141.9345  142.7001  166.2886 N.pl3   1  UNL1       -0.2977
     13 H         142.8792  142.7685  166.5571 H       1  UNL1        0.1536
     14 C         139.8217  146.1357  161.8465 C.3     1  UNL1        0.0310
     15 C         140.3499  145.2768  162.9570 C.ar    1  UNL1       -0.0218
     16 C         141.7988  144.8897  162.9815 C.ar    1  UNL1       -0.0030
     17 C         142.3270  144.0308  164.0920 C.ar    1  UNL1        0.0143
     18 C         141.4063  143.5590  165.1781 C.ar    1  UNL1        0.0493
     19 C         139.9573  143.9460  165.1536 C.ar    1  UNL1        0.0143
     20 C         139.4291  144.8049  164.0430 C.ar    1  UNL1       -0.0030
     21 N         138.3992  138.8967  166.0969 N.pl3   1  UNL1       -0.3031
     22 H         137.7688  138.2955  166.5556 H       1  UNL1        0.1496
     23 C         138.5032  138.8742  164.6006 C.3     1  UNL1        0.0908
     24 C         139.0955  137.6829  163.9078 C.3     1  UNL1        0.0531
     25 C         139.1994  137.6604  162.4116 C.3     1  UNL1        0.1440
     26 O         138.7112  138.8293  161.6082 O.3     1  UNL1       -0.3522
     27 C         138.1189  140.0206  162.3011 C.3     1  UNL1        0.1592
     28 C         138.0149  140.0431  163.7973 C.3     1  UNL1        0.0990
     29 N         137.4227  141.2343  164.4902 N.3     1  UNL1       -0.3189
     30 H         137.4307  141.0800  165.4984 H       1  UNL1        0.1189
     31 H         136.4622  141.3686  164.1744 H       1  UNL1        0.1189
@<TRIPOS>BOND
     1    14    15    1
     2    15    16   ar
     3    16    17   ar
     4    17    18   ar
     5    18    12    1
     6    12     1    1
     7     1     2   ar
     8     2     3   ar
     9     3    21    1
    10    23    21    1
    11    23    24    1
    12    24    25    1
    13    25    26    1
    14    26    27    1
    15    27    28    1
    16    28    29    1
    17     3     4   ar
    18     4     5   ar
    19     5     6   ar
    20     6     7    1
    21     7     8   am
    22     7     9    2
    23    18    19   ar
    24    19    20   ar
    25    20    15   ar
    26     6     1   ar
    27    28    23    1
    28    12    13    1
    29    21    22    1
    30    29    30    1
    31    29    31    1
    32     8    10    1
    33     8    11    1
@<TRIPOS>MOLECULE
*****
 31 33 0 0 0
SMALL
GASTEIGER

@<TRIPOS>ATOM
      1 C         140.3477  141.5517  168.1523 C.ar    1  UNL1        0.1409
      2 N         139.8397  140.5753  167.1331 N.ar    1  UNL1       -0.1986
      3 C         138.8269  139.5407  167.5252 C.ar    1  UNL1        0.2181
      4 N         138.3220  139.4824  168.9365 N.ar    1  UNL1       -0.2120
      5 C         138.8300  140.4587  169.9557 C.ar    1  UNL1        0.1091
      6 C         139.8428  141.4934  169.5636 C.ar    1  UNL1        0.1040
      7 C         140.3508  142.4697  170.5828 C.2     1  UNL1        0.2470
      8 N         139.9127  143.9034  170.5316 N.am    1  UNL1       -0.3252
      9 O         141.2968  142.0123  171.6532 O.2     1  UNL1       -0.2702
     10 H         139.2918  144.2036  169.8290 H       1  UNL1        0.1453
     11 H         140.2461  144.5442  171.2005 H       1  UNL1        0.1453
     12 N         141.3605  142.5863  167.7602 N.pl3   1  UNL1       -0.2977
     13 H         141.6610  143.2548  168.4174 H       1  UNL1        0.1536
     14 C         143.5805  142.6501  162.1864 C.3     1  UNL1        0.0310
     15 C         143.0255  142.6341  163.5798 C.ar    1  UNL1       -0.0218
     16 C         143.8094  142.0032  164.6922 C.ar    1  UNL1       -0.0030
     17 C         143.2544  141.9872  166.0856 C.ar    1  UNL1        0.0143
     18 C         141.9155  142.6022  166.3668 C.ar    1  UNL1        0.0493
     19 C         141.1316  143.2331  165.2544 C.ar    1  UNL1        0.0143
     20 C         141.6866  143.2491  163.8610 C.ar    1  UNL1       -0.0030
     21 N         138.3189  138.5643  166.5061 N.pl3   1  UNL1       -0.3031
     22 H         137.6110  137.9242  166.7476 H       1  UNL1        0.1496
     23 C         138.8895  138.5633  165.1188 C.3     1  UNL1        0.0908
     24 C         139.8071  137.4584  164.6861 C.3     1  UNL1        0.0531
     25 C         140.3777  137.4573  163.2989 C.3     1  UNL1        0.1440
     26 O         140.0306  138.5612  162.3443 O.3     1  UNL1       -0.3522
     27 C         139.1130  139.6661  162.7771 C.3     1  UNL1        0.1592
     28 C         138.5424  139.6671  164.1643 C.3     1  UNL1        0.0990
     29 N         137.6248  140.7719  164.5970 N.3     1  UNL1       -0.3189
     30 H         137.3341  140.6142  165.5619 H       1  UNL1        0.1189
     31 H         136.8033  140.7879  163.9927 H       1  UNL1        0.1189
@<TRIPOS>BOND
     1    14    15    1
     2    15    16   ar
     3    16    17   ar
     4    17    18   ar
     5    18    12    1
     6    12     1    1
     7     1     2   ar
     8     2     3   ar
     9     3    21    1
    10    23    21    1
    11    23    24    1
    12    24    25    1
    13    25    26    1
    14    26    27    1
    15    27    28    1
    16    28    29    1
    17     3     4   ar
    18     4     5   ar
    19     5     6   ar
    20     6     7    1
    21     7     8   am
    22     7     9    2
    23    18    19   ar
    24    19    20   ar
    25    20    15   ar
    26     6     1   ar
    27    28    23    1
    28    12    13    1
    29    21    22    1
    30    29    30    1
    31    29    31    1
    32     8    10    1
    33     8    11    1
@<TRIPOS>MOLECULE
*****
 31 33 0 0 0
SMALL
GASTEIGER

@<TRIPOS>ATOM
      1 C         141.5298  141.2459  167.9395 C.ar    1  UNL1        0.1409
      2 N         142.1348  140.4065  166.8534 N.ar    1  UNL1       -0.1986
      3 C         142.9127  139.1730  167.2043 C.ar    1  UNL1        0.2181
      4 N         143.0857  138.7787  168.6411 N.ar    1  UNL1       -0.2120
      5 C         142.4807  139.6180  169.7272 C.ar    1  UNL1        0.1091
      6 C         141.7028  140.8516  169.3764 C.ar    1  UNL1        0.1040
      7 C         141.0978  141.6909  170.4624 C.2     1  UNL1        0.2470
      8 N         141.9796  142.3411  171.4870 N.am    1  UNL1       -0.3252
      9 O         139.6111  141.8801  170.5239 O.2     1  UNL1       -0.2702
     10 H         142.9554  142.2169  171.4467 H       1  UNL1        0.1453
     11 H         141.5825  142.8919  172.1999 H       1  UNL1        0.1453
     12 N         140.7518  142.4794  167.5887 N.pl3   1  UNL1       -0.2977
     13 H         140.7308  143.2418  168.2112 H       1  UNL1        0.1536
     14 C         137.7682  142.7676  162.3911 C.3     1  UNL1        0.0310
     15 C         138.5141  142.6955  163.6905 C.ar    1  UNL1       -0.0218
     16 C         138.4866  141.4345  164.5022 C.ar    1  UNL1       -0.0030
     17 C         139.2325  141.3624  165.8016 C.ar    1  UNL1        0.0143
     18 C         140.0059  142.5515  166.2893 C.ar    1  UNL1        0.0493
     19 C         140.0335  143.8125  165.4776 C.ar    1  UNL1        0.0143
     20 C         139.2876  143.8846  164.1782 C.ar    1  UNL1       -0.0030
     21 N         143.5177  138.3336  166.1182 N.pl3   1  UNL1       -0.3031
     22 H         144.3757  137.8754  166.2703 H       1  UNL1        0.1496
     23 C         142.8154  138.1923  164.8003 C.3     1  UNL1        0.0908
     24 C         141.4670  137.5384  164.7353 C.3     1  UNL1        0.0531
     25 C         140.7647  137.3972  163.4174 C.3     1  UNL1        0.1440
     26 O         141.4109  137.9098  162.1645 O.3     1  UNL1       -0.3522
     27 C         142.7592  138.5637  162.2295 C.3     1  UNL1        0.1592
     28 C         143.4615  138.7049  163.5474 C.3     1  UNL1        0.0990
     29 N         144.8099  139.3588  163.6124 N.3     1  UNL1       -0.3189
     30 H         145.1363  139.3695  164.5787 H       1  UNL1        0.1189
     31 H         144.7408  140.3158  163.2662 H       1  UNL1        0.1189
@<TRIPOS>BOND
     1    14    15    1
     2    15    16   ar
     3    16    17   ar
     4    17    18   ar
     5    18    12    1
     6    12     1    1
     7     1     2   ar
     8     2     3   ar
     9     3    21    1
    10    23    21    1
    11    23    24    1
    12    24    25    1
    13    25    26    1
    14    26    27    1
    15    27    28    1
    16    28    29    1
    17     3     4   ar
    18     4     5   ar
    19     5     6   ar
    20     6     7    1
    21     7     8   am
    22     7     9    2
    23    18    19   ar
    24    19    20   ar
    25    20    15   ar
    26     6     1   ar
    27    28    23    1
    28    12    13    1
    29    21    22    1
    30    29    30    1
    31    29    31    1
    32     8    10    1
    33     8    11    1
