@<TRIPOS>MOLECULE
*****
 21 25 0 0 0
SMALL
GASTEIGER

@<TRIPOS>ATOM
      1 C         140.1603  141.8177  169.0926 C.3     1  UNL1        0.0000
      2 C         140.7707  142.7078  168.0509 C.3     1  UNL1        0.0000
      3 C         140.5938  142.0477  166.7156 C.3     1  UNL1        0.0002
      4 C         139.8740  140.7496  166.9320 C.3     1  UNL1        0.0052
      5 C         139.6061  140.6074  168.4011 C.3     1  UNL1        0.0002
      6 C         140.2105  141.0289  165.4972 C.3     1  UNL1        0.0320
      7 C         139.8261  140.0455  164.4317 C.3     1  UNL1        0.0734
      8 N         139.1053  138.7830  164.8010 N.3     1  UNL1       -0.2726
      9 C         138.7688  138.5037  166.2358 C.3     1  UNL1        0.0734
     10 C         139.1532  139.4870  167.3014 C.3     1  UNL1        0.0320
     11 C         139.6946  140.6007  167.6973 C.3     1  UNL1        0.0734
     12 N         140.0790  141.2740  167.5003 N.3     1  UNL1       -0.2726
     13 C         140.2584  141.4230  166.7351 C.3     1  UNL1        0.0734
     14 C         138.7209  137.7997  163.7354 C.3     1  UNL1        0.0720
     15 C         138.5237  138.2636  162.3226 C.3     1  UNL1        0.0160
     16 C         137.7587  139.0693  161.3147 C.3     1  UNL1        0.0014
     17 C         138.9469  138.2616  160.8836 C.3     1  UNL1        0.0014
     18 C         140.6428  142.7163  169.0632 C.3     1  UNL1        0.0720
     19 C         142.0449  142.7351  169.5957 C.3     1  UNL1        0.0160
     20 C         143.4786  142.3056  169.4953 C.3     1  UNL1        0.0014
     21 C         143.0398  143.1974  170.6188 C.3     1  UNL1        0.0014
@<TRIPOS>BOND
     1     1     2    1
     2     2     3    1
     3     3     4    1
     4     4     5    1
     5     4     6    1
     6     6     7    1
     7     7     8    1
     8     8    14    1
     9    14    15    1
    10    15    16    1
    11    16    17    1
    12     8     9    1
    13    10     9    1
    14    10    11    1
    15    11    12    1
    16    12    18    1
    17    18    19    1
    18    19    20    1
    19    20    21    1
    20    12    13    1
    21     5     1    1
    22    13     6    1
    23    10     4    1
    24    21    19    1
    25    17    15    1
@<TRIPOS>MOLECULE
*****
 21 25 0 0 0
SMALL
GASTEIGER

@<TRIPOS>ATOM
      1 C         138.1227  139.6329  165.8068 C.3     1  UNL1        0.0000
      2 C         138.6415  138.2270  165.7403 C.3     1  UNL1        0.0000
      3 C         138.9378  137.9097  164.3045 C.3     1  UNL1        0.0002
      4 C         138.6021  139.1194  163.4836 C.3     1  UNL1        0.0052
      5 C         138.0984  140.1844  164.4121 C.3     1  UNL1        0.0002
      6 C         139.1228  137.9635  162.6820 C.3     1  UNL1        0.0320
      7 C         139.2657  138.0867  161.1939 C.3     1  UNL1        0.0734
      8 N         138.8879  139.3658  160.5075 N.3     1  UNL1       -0.2726
      9 C         138.3672  140.5217  161.3091 C.3     1  UNL1        0.0734
     10 C         138.2243  140.3985  162.7972 C.3     1  UNL1        0.0320
     11 C         138.3244  139.7359  163.9111 C.3     1  UNL1        0.0734
     12 N         138.5259  139.0538  164.2772 N.3     1  UNL1       -0.2726
     13 C         138.8036  138.4373  163.8497 C.3     1  UNL1        0.0734
     14 C         139.0309  139.4889  159.0193 C.3     1  UNL1        0.0720
     15 C         138.3338  140.5976  158.2880 C.3     1  UNL1        0.0160
     16 C         138.1216  142.0629  158.0473 C.3     1  UNL1        0.0014
     17 C         137.3388  141.0527  157.2619 C.3     1  UNL1        0.0014
     18 C         138.3162  138.8731  166.4598 C.3     1  UNL1        0.0720
     19 C         139.1693  139.7094  167.3670 C.3     1  UNL1        0.0160
     20 C         140.2265  140.7567  167.5554 C.3     1  UNL1        0.0014
     21 C         139.5896  140.1106  168.7499 C.3     1  UNL1        0.0014
@<TRIPOS>BOND
     1     1     2    1
     2     2     3    1
     3     3     4    1
     4     4     5    1
     5     4     6    1
     6     6     7    1
     7     7     8    1
     8     8    14    1
     9    14    15    1
    10    15    16    1
    11    16    17    1
    12     8     9    1
    13    10     9    1
    14    10    11    1
    15    11    12    1
    16    12    18    1
    17    18    19    1
    18    19    20    1
    19    20    21    1
    20    12    13    1
    21     5     1    1
    22    13     6    1
    23    10     4    1
    24    21    19    1
    25    17    15    1
@<TRIPOS>MOLECULE
*****
 21 25 0 0 0
SMALL
GASTEIGER

@<TRIPOS>ATOM
      1 C         138.9232  137.5275  164.1644 C.3     1  UNL1        0.0000
      2 C         140.3477  137.3224  164.5869 C.3     1  UNL1        0.0000
      3 C         141.2203  137.5091  163.3813 C.3     1  UNL1        0.0002
      4 C         140.3351  137.8295  162.2135 C.3     1  UNL1        0.0052
      5 C         138.9154  137.8409  162.6975 C.3     1  UNL1        0.0002
      6 C         141.7961  137.7834  161.8769 C.3     1  UNL1        0.0320
      7 C         142.2507  138.0463  160.4719 C.3     1  UNL1        0.0734
      8 N         141.2443  138.3554  159.4034 N.3     1  UNL1       -0.2726
      9 C         139.7833  138.4015  159.7400 C.3     1  UNL1        0.0734
     10 C         139.3287  138.1386  161.1450 C.3     1  UNL1        0.0320
     11 C         139.5559  137.8542  162.3930 C.3     1  UNL1        0.0734
     12 N         140.0926  137.6893  162.9628 N.3     1  UNL1       -0.2726
     13 C         140.8718  137.6647  162.7834 C.3     1  UNL1        0.0734
     14 C         141.6990  138.6183  157.9984 C.3     1  UNL1        0.0720
     15 C         142.0250  137.4712  157.0884 C.3     1  UNL1        0.0160
     16 C         141.6301  136.5367  155.9836 C.3     1  UNL1        0.0014
     17 C         142.9845  136.4189  156.6173 C.3     1  UNL1        0.0014
     18 C         139.4258  137.3037  165.0237 C.3     1  UNL1        0.0720
     19 C         138.6607  138.3538  165.7733 C.3     1  UNL1        0.0160
     20 C         138.1370  139.7558  165.8743 C.3     1  UNL1        0.0014
     21 C         137.8593  138.7707  166.9708 C.3     1  UNL1        0.0014
@<TRIPOS>BOND
     1     1     2    1
     2     2     3    1
     3     3     4    1
     4     4     5    1
     5     4     6    1
     6     6     7    1
     7     7     8    1
     8     8    14    1
     9    14    15    1
    10    15    16    1
    11    16    17    1
    12     8     9    1
    13    10     9    1
    14    10    11    1
    15    11    12    1
    16    12    18    1
    17    18    19    1
    18    19    20    1
    19    20    21    1
    20    12    13    1
    21     5     1    1
    22    13     6    1
    23    10     4    1
    24    21    19    1
    25    17    15    1
@<TRIPOS>MOLECULE
*****
 21 25 0 0 0
SMALL
GASTEIGER

@<TRIPOS>ATOM
      1 C         139.4210  140.2248  168.9989 C.3     1  UNL1        0.0000
      2 C         140.8890  140.4836  168.8317 C.3     1  UNL1        0.0000
      3 C         141.2791  140.0624  167.4459 C.3     1  UNL1        0.0002
      4 C         140.0522  139.5432  166.7566 C.3     1  UNL1        0.0052
      5 C         138.9039  139.6436  167.7164 C.3     1  UNL1        0.0002
      6 C         141.2902  139.5038  165.9105 C.3     1  UNL1        0.0320
      7 C         141.2233  138.9767  164.5078 C.3     1  UNL1        0.0734
      8 N         139.9186  138.4890  163.9511 N.3     1  UNL1       -0.2726
      9 C         138.6807  138.5284  164.7973 C.3     1  UNL1        0.0734
     10 C         138.7475  139.0555  166.2000 C.3     1  UNL1        0.0320
     11 C         139.3920  139.5642  167.2079 C.3     1  UNL1        0.0734
     12 N         140.0878  139.8243  167.5047 N.3     1  UNL1       -0.2726
     13 C         140.7481  139.8033  167.0535 C.3     1  UNL1        0.0734
     14 C         139.8519  137.9620  162.5483 C.3     1  UNL1        0.0720
     15 C         138.9836  138.6423  161.5319 C.3     1  UNL1        0.0160
     16 C         138.7813  139.1754  160.1445 C.3     1  UNL1        0.0014
     17 C         137.6820  139.2877  161.1588 C.3     1  UNL1        0.0014
     18 C         140.1858  140.5973  169.5622 C.3     1  UNL1        0.0720
     19 C         140.1350  142.0756  169.8111 C.3     1  UNL1        0.0160
     20 C         140.4284  143.4784  169.3683 C.3     1  UNL1        0.0014
     21 C         139.7534  143.2334  170.6853 C.3     1  UNL1        0.0014
@<TRIPOS>BOND
     1     1     2    1
     2     2     3    1
     3     3     4    1
     4     4     5    1
     5     4     6    1
     6     6     7    1
     7     7     8    1
     8     8    14    1
     9    14    15    1
    10    15    16    1
    11    16    17    1
    12     8     9    1
    13    10     9    1
    14    10    11    1
    15    11    12    1
    16    12    18    1
    17    18    19    1
    18    19    20    1
    19    20    21    1
    20    12    13    1
    21     5     1    1
    22    13     6    1
    23    10     4    1
    24    21    19    1
    25    17    15    1
@<TRIPOS>MOLECULE
*****
 21 25 0 0 0
SMALL
GASTEIGER

@<TRIPOS>ATOM
      1 C         138.6110  138.2904  165.8407 C.3     1  UNL1        0.0000
      2 C         138.0843  139.6949  165.8412 C.3     1  UNL1        0.0000
      3 C         138.0960  140.1948  164.4270 C.3     1  UNL1        0.0002
      4 C         138.6298  139.0993  163.5525 C.3     1  UNL1        0.0052
      5 C         138.9481  137.9223  164.4262 C.3     1  UNL1        0.0002
      6 C         138.2654  140.3503  162.8094 C.3     1  UNL1        0.0320
      7 C         138.4487  140.4195  161.3223 C.3     1  UNL1        0.0734
      8 N         138.9965  139.2378  160.5782 N.3     1  UNL1       -0.2726
      9 C         139.3609  137.9869  161.3213 C.3     1  UNL1        0.0734
     10 C         139.1775  137.9176  162.8084 C.3     1  UNL1        0.0320
     11 C         138.8241  138.4321  163.9488 C.3     1  UNL1        0.0734
     12 N         138.5320  139.0623  164.3456 N.3     1  UNL1       -0.2726
     13 C         138.3377  139.7295  163.9493 C.3     1  UNL1        0.0734
     14 C         139.1798  139.3072  159.0911 C.3     1  UNL1        0.0720
     15 C         140.5375  139.0895  158.4917 C.3     1  UNL1        0.0160
     16 C         141.6716  138.1717  158.1430 C.3     1  UNL1        0.0014
     17 C         141.7550  139.6301  157.8022 C.3     1  UNL1        0.0014
     18 C         138.2631  138.9607  166.5268 C.3     1  UNL1        0.0720
     19 C         139.1987  139.7043  167.4333 C.3     1  UNL1        0.0160
     20 C         140.4106  140.5673  167.6241 C.3     1  UNL1        0.0014
     21 C         139.6073  140.1292  168.8127 C.3     1  UNL1        0.0014
@<TRIPOS>BOND
     1     1     2    1
     2     2     3    1
     3     3     4    1
     4     4     5    1
     5     4     6    1
     6     6     7    1
     7     7     8    1
     8     8    14    1
     9    14    15    1
    10    15    16    1
    11    16    17    1
    12     8     9    1
    13    10     9    1
    14    10    11    1
    15    11    12    1
    16    12    18    1
    17    18    19    1
    18    19    20    1
    19    20    21    1
    20    12    13    1
    21     5     1    1
    22    13     6    1
    23    10     4    1
    24    21    19    1
    25    17    15    1
@<TRIPOS>MOLECULE
*****
 21 25 0 0 0
SMALL
GASTEIGER

@<TRIPOS>ATOM
      1 C         141.0912  140.5335  169.0792 C.3     1  UNL1        0.0000
      2 C         139.6341  140.6006  168.7291 C.3     1  UNL1        0.0000
      3 C         139.4577  140.0065  167.3631 C.3     1  UNL1        0.0002
      4 C         140.8057  139.5723  166.8689 C.3     1  UNL1        0.0052
      5 C         141.8152  139.8981  167.9295 C.3     1  UNL1        0.0002
      6 C         139.6879  139.3072  165.9045 C.3     1  UNL1        0.0320
      7 C         139.9759  138.6608  164.5819 C.3     1  UNL1        0.0734
      8 N         141.3817  138.2795  164.2237 N.3     1  UNL1       -0.2726
      9 C         142.4996  138.5446  165.1881 C.3     1  UNL1        0.0734
     10 C         142.2116  139.1911  166.5107 C.3     1  UNL1        0.0320
     11 C         141.4019  139.7137  167.3832 C.3     1  UNL1        0.0734
     12 N         140.6522  139.9171  167.5742 N.3     1  UNL1       -0.2726
     13 C         140.0560  139.7757  167.0599 C.3     1  UNL1        0.0734
     14 C         141.6696  137.6331  162.9011 C.3     1  UNL1        0.0720
     15 C         142.8709  138.0525  162.1069 C.3     1  UNL1        0.0160
     16 C         143.9685  139.0379  161.8341 C.3     1  UNL1        0.0014
     17 C         143.8542  137.7937  161.0041 C.3     1  UNL1        0.0014
     18 C         140.2298  140.8652  169.5141 C.3     1  UNL1        0.0720
     19 C         140.6779  142.2728  169.7743 C.3     1  UNL1        0.0160
     20 C         141.7783  143.2594  170.0310 C.3     1  UNL1        0.0014
     21 C         140.3536  143.7245  169.9682 C.3     1  UNL1        0.0014
@<TRIPOS>BOND
     1     1     2    1
     2     2     3    1
     3     3     4    1
     4     4     5    1
     5     4     6    1
     6     6     7    1
     7     7     8    1
     8     8    14    1
     9    14    15    1
    10    15    16    1
    11    16    17    1
    12     8     9    1
    13    10     9    1
    14    10    11    1
    15    11    12    1
    16    12    18    1
    17    18    19    1
    18    19    20    1
    19    20    21    1
    20    12    13    1
    21     5     1    1
    22    13     6    1
    23    10     4    1
    24    21    19    1
    25    17    15    1
@<TRIPOS>MOLECULE
*****
 21 25 0 0 0
SMALL
GASTEIGER

@<TRIPOS>ATOM
      1 C         140.2631  141.1743  168.2681 C.3     1  UNL1        0.0000
      2 C         139.5093  139.9519  167.8354 C.3     1  UNL1        0.0000
      3 C         139.1203  140.1317  166.3979 C.3     1  UNL1        0.0002
      4 C         139.6338  141.4653  165.9422 C.3     1  UNL1        0.0052
      5 C         140.3401  142.1097  167.0980 C.3     1  UNL1        0.0002
      6 C         138.8989  140.6997  164.8820 C.3     1  UNL1        0.0320
      7 C         138.7350  141.2861  163.5112 C.3     1  UNL1        0.0734
      8 N         139.3058  142.6380  163.2004 N.3     1  UNL1       -0.2726
      9 C         140.0407  143.4035  164.2605 C.3     1  UNL1        0.0734
     10 C         140.2047  142.8172  165.6314 C.3     1  UNL1        0.0320
     11 C         140.0257  141.8736  166.5075 C.3     1  UNL1        0.0734
     12 N         139.7213  141.1526  166.6733 N.3     1  UNL1       -0.2726
     13 C         139.3294  140.7443  166.1079 C.3     1  UNL1        0.0734
     14 C         139.1418  143.2242  161.8295 C.3     1  UNL1        0.0720
     15 C         139.6846  144.5895  161.5276 C.3     1  UNL1        0.0160
     16 C         140.4863  145.5037  160.6492 C.3     1  UNL1        0.0014
     17 C         139.8232  146.0402  161.8831 C.3     1  UNL1        0.0014
     18 C         139.9618  140.2927  168.6840 C.3     1  UNL1        0.0720
     19 C         141.3310  139.9609  169.1989 C.3     1  UNL1        0.0160
     20 C         142.7773  140.3206  169.3693 C.3     1  UNL1        0.0014
     21 C         142.2564  139.0265  169.9206 C.3     1  UNL1        0.0014
@<TRIPOS>BOND
     1     1     2    1
     2     2     3    1
     3     3     4    1
     4     4     5    1
     5     4     6    1
     6     6     7    1
     7     7     8    1
     8     8    14    1
     9    14    15    1
    10    15    16    1
    11    16    17    1
    12     8     9    1
    13    10     9    1
    14    10    11    1
    15    11    12    1
    16    12    18    1
    17    18    19    1
    18    19    20    1
    19    20    21    1
    20    12    13    1
    21     5     1    1
    22    13     6    1
    23    10     4    1
    24    21    19    1
    25    17    15    1
@<TRIPOS>MOLECULE
*****
 21 25 0 0 0
SMALL
GASTEIGER

@<TRIPOS>ATOM
      1 C         138.7932  138.1744  164.2671 C.3     1  UNL1        0.0000
      2 C         140.2358  138.1064  163.8618 C.3     1  UNL1        0.0000
      3 C         141.0598  138.6614  164.9856 C.3     1  UNL1        0.0002
      4 C         140.1264  139.0725  166.0855 C.3     1  UNL1        0.0052
      5 C         138.7256  138.7715  165.6414 C.3     1  UNL1        0.0002
      6 C         141.5745  139.3165  166.3912 C.3     1  UNL1        0.0320
      7 C         141.9720  139.9222  167.7046 C.3     1  UNL1        0.0734
      8 N         140.9215  140.2840  168.7123 N.3     1  UNL1       -0.2726
      9 C         139.4734  140.0400  168.4067 C.3     1  UNL1        0.0734
     10 C         139.0758  139.4342  167.0933 C.3     1  UNL1        0.0320
     11 C         139.3541  138.9424  165.9225 C.3     1  UNL1        0.0734
     12 N         139.9143  138.7494  165.3851 N.3     1  UNL1       -0.2726
     13 C         140.6866  138.8796  165.5481 C.3     1  UNL1        0.0734
     14 C         141.3192  140.8897  170.0257 C.3     1  UNL1        0.0720
     15 C         142.4257  141.9009  170.0810 C.3     1  UNL1        0.0160
     16 C         143.7959  142.3510  169.6687 C.3     1  UNL1        0.0014
     17 C         142.9721  143.2022  170.5888 C.3     1  UNL1        0.0014
     18 C         139.3312  137.8610  163.4587 C.3     1  UNL1        0.0720
     19 C         138.5687  138.6765  162.4569 C.3     1  UNL1        0.0160
     20 C         138.2099  140.0094  161.8699 C.3     1  UNL1        0.0014
     21 C         137.6068  138.7559  161.3086 C.3     1  UNL1        0.0014
@<TRIPOS>BOND
     1     1     2    1
     2     2     3    1
     3     3     4    1
     4     4     5    1
     5     4     6    1
     6     6     7    1
     7     7     8    1
     8     8    14    1
     9    14    15    1
    10    15    16    1
    11    16    17    1
    12     8     9    1
    13    10     9    1
    14    10    11    1
    15    11    12    1
    16    12    18    1
    17    18    19    1
    18    19    20    1
    19    20    21    1
    20    12    13    1
    21     5     1    1
    22    13     6    1
    23    10     4    1
    24    21    19    1
    25    17    15    1
@<TRIPOS>MOLECULE
*****
 21 25 0 0 0
SMALL
GASTEIGER

@<TRIPOS>ATOM
      1 C         140.2567  137.4881  163.4913 C.3     1  UNL1        0.0000
      2 C         141.7344  137.6882  163.6537 C.3     1  UNL1        0.0000
      3 C         141.9620  138.4497  164.9259 C.3     1  UNL1        0.0002
      4 C         140.6249  138.7201  165.5497 C.3     1  UNL1        0.0052
      5 C         139.5711  138.1258  164.6630 C.3     1  UNL1        0.0002
      6 C         141.7842  139.2612  166.3328 C.3     1  UNL1        0.0320
      7 C         141.5433  139.9968  167.6177 C.3     1  UNL1        0.0734
      8 N         140.1431  140.1913  168.1194 N.3     1  UNL1       -0.2726
      9 C         138.9838  139.6502  167.3363 C.3     1  UNL1        0.0734
     10 C         139.2247  138.9146  166.0515 C.3     1  UNL1        0.0320
     11 C         140.0066  138.4315  165.1321 C.3     1  UNL1        0.0734
     12 N         140.7534  138.3278  164.8645 N.3     1  UNL1       -0.2726
     13 C         141.3716  138.6164  165.2821 C.3     1  UNL1        0.0734
     14 C         139.9023  140.9269  169.4043 C.3     1  UNL1        0.0720
     15 C         140.4715  142.3008  169.6000 C.3     1  UNL1        0.0160
     16 C         140.3083  143.7916  169.5657 C.3     1  UNL1        0.0014
     17 C         141.6204  143.1899  169.9734 C.3     1  UNL1        0.0014
     18 C         141.1067  137.2489  162.9799 C.3     1  UNL1        0.0720
     19 C         141.7973  137.9370  161.8399 C.3     1  UNL1        0.0160
     20 C         142.8826  138.8398  161.3330 C.3     1  UNL1        0.0014
     21 C         141.9081  138.2259  160.3721 C.3     1  UNL1        0.0014
@<TRIPOS>BOND
     1     1     2    1
     2     2     3    1
     3     3     4    1
     4     4     5    1
     5     4     6    1
     6     6     7    1
     7     7     8    1
     8     8    14    1
     9    14    15    1
    10    15    16    1
    11    16    17    1
    12     8     9    1
    13    10     9    1
    14    10    11    1
    15    11    12    1
    16    12    18    1
    17    18    19    1
    18    19    20    1
    19    20    21    1
    20    12    13    1
    21     5     1    1
    22    13     6    1
    23    10     4    1
    24    21    19    1
    25    17    15    1
