@<TRIPOS>MOLECULE
*****
 45 49 0 0 0
SMALL
GASTEIGER

@<TRIPOS>ATOM
      1 C         141.2718  140.4828  162.0250 C.3     1  UNL1        0.0808
      2 C         140.8636  140.2993  163.4567 C.ar    1  UNL1        0.0375
      3 C         141.0391  141.4216  164.4364 C.ar    1  UNL1        0.0023
      4 C         140.6309  141.2382  165.8680 C.ar    1  UNL1        0.0181
      5 C         140.8065  142.3604  166.8477 C.ar    1  UNL1        0.0082
      6 C         140.3982  142.1770  168.2794 C.ar    1  UNL1        0.0347
      7 BR        140.5738  143.2992  169.2590 Br      1  UNL1       -0.0490
      8 C         139.8144  140.8713  168.7314 C.ar    1  UNL1        0.0082
      9 C         139.6389  139.7490  167.7517 C.ar    1  UNL1        0.0197
     10 C         140.0471  139.9324  166.3201 C.ar    1  UNL1        0.0844
     11 N         139.8716  138.8102  165.3404 N.ar    1  UNL1       -0.2119
     12 C         140.2798  138.9936  163.9087 C.ar    1  UNL1        0.2211
     13 O         140.1043  137.8714  162.9291 O.3     1  UNL1       -0.4563
     14 C         138.6240  137.6771  162.7839 C.3     1  UNL1        0.2542
     15 C         140.2494  140.3708  160.9333 C.ar    1  UNL1        0.0245
     16 C         139.0867  141.3178  160.8945 C.ar    1  UNL1        0.0200
     17 C         138.0642  141.2057  159.8028 C.ar    1  UNL1        0.1019
     18 N         138.2043  140.1466  158.7498 N.ar    1  UNL1       -0.2076
     19 C         139.3669  139.1996  158.7885 C.ar    1  UNL1        0.2598
     20 C         140.3895  139.3117  159.8803 C.ar    1  UNL1        0.1879
     21 O         139.5071  138.1406  157.7356 O.3     1  UNL1       -0.4541
     22 C         139.7680  138.5296  156.3107 C.3     1  UNL1        0.2543
     23 O         141.5521  138.3647  159.9191 O.3     1  UNL1       -0.4670
     24 C         142.6266  138.4532  158.8762 C.3     1  UNL1        0.2527
     25 C         142.7026  140.7783  161.6851 C.3     1  UNL1        0.1162
     26 O         143.0970  139.4095  162.1549 O.3     1  UNL1       -0.3820
     27 H         144.0543  139.2946  162.0490 H       1  UNL1        0.2107
     28 C         142.2077  143.9389  159.3366 C.ar    1  UNL1        0.2272
     29 C         142.6020  142.5701  159.8064 C.ar    1  UNL1        0.0559
     30 C         142.3083  142.1472  161.2153 C.ar    1  UNL1        0.0117
     31 C         141.6202  143.0931  162.1542 C.ar    1  UNL1        0.0559
     32 C         141.2259  144.4619  161.6844 C.ar    1  UNL1        0.2270
     33 N         141.5196  144.8849  160.2756 N.ar    1  UNL1       -0.1767
     34 C         142.1199  145.7357  157.4620 C.3     1  UNL1        0.2542
     35 O         142.5014  144.3618  157.9277 O.3     1  UNL1       -0.4561
     36 O         140.5377  145.4079  162.6235 O.3     1  UNL1       -0.4640
     37 C         139.4056  144.9234  163.4799 C.3     1  UNL1        0.1676
     38 C         139.1346  144.8795  164.9546 C.3     1  UNL1        0.0437
     39 C         137.8044  144.2382  164.6911 C.3     1  UNL1        0.0074
     40 C         138.0754  144.2822  163.2165 C.3     1  UNL1        0.0437
     41 C         144.1334  141.0738  161.3452 C.3     1  UNL1        0.0491
     42 C         145.0240  141.7324  162.3568 C.3     1  UNL1        0.0750
     43 N         144.8615  141.4205  163.8150 N.3     1  UNL1       -0.2702
     44 C         145.1976  140.0530  164.3315 C.3     1  UNL1        0.0897
     45 C         144.3628  142.4763  164.7567 C.3     1  UNL1        0.0897
@<TRIPOS>BOND
     1    34    35    1
     2    35    28    1
     3    28    29   ar
     4    29    30   ar
     5    30    25    1
     6    25    26    1
     7    25    41    1
     8    41    42    1
     9    42    43    1
    10    43    44    1
    11    43    45    1
    12    25     1    1
    13     1     2    1
    14     2     3   ar
    15     3     4   ar
    16     4     5   ar
    17     5     6   ar
    18     6     7    1
    19     6     8   ar
    20     8     9   ar
    21     9    10   ar
    22    10    11   ar
    23    11    12   ar
    24    12    13    1
    25    13    14    1
    26     1    15    1
    27    15    16   ar
    28    16    17   ar
    29    17    18   ar
    30    18    19   ar
    31    19    21    1
    32    21    22    1
    33    19    20   ar
    34    20    23    1
    35    23    24    1
    36    30    31   ar
    37    31    32   ar
    38    32    36    1
    39    36    37    1
    40    37    38    1
    41    38    39    1
    42    39    40    1
    43    32    33   ar
    44    33    28   ar
    45    12     2   ar
    46    20    15   ar
    47    40    37    1
    48    10     4   ar
    49    26    27    1
@<TRIPOS>MOLECULE
*****
 45 49 0 0 0
SMALL
GASTEIGER

@<TRIPOS>ATOM
      1 C         141.7546  140.6483  162.2612 C.3     1  UNL1        0.0808
      2 C         142.1944  141.0424  163.6400 C.ar    1  UNL1        0.0375
      3 C         141.1736  141.3999  164.6794 C.ar    1  UNL1        0.0023
      4 C         141.6134  141.7941  166.0582 C.ar    1  UNL1        0.0181
      5 C         140.5926  142.1515  167.0975 C.ar    1  UNL1        0.0082
      6 C         141.0325  142.5457  168.4764 C.ar    1  UNL1        0.0347
      7 BR        140.0117  142.9032  169.5157 Br      1  UNL1       -0.0490
      8 C         142.4931  142.5823  168.8159 C.ar    1  UNL1        0.0082
      9 C         143.5139  142.2249  167.7766 C.ar    1  UNL1        0.0197
     10 C         143.0741  141.8307  166.3977 C.ar    1  UNL1        0.0844
     11 N         144.0949  141.4733  165.3584 N.ar    1  UNL1       -0.2119
     12 C         143.6550  141.0791  163.9795 C.ar    1  UNL1        0.2211
     13 O         144.6758  140.7216  162.9402 O.3     1  UNL1       -0.4563
     14 C         145.5971  141.9013  162.8427 C.3     1  UNL1        0.2542
     15 C         142.4100  141.2634  161.0603 C.ar    1  UNL1        0.0245
     16 C         142.3105  142.7418  160.8265 C.ar    1  UNL1        0.0200
     17 C         142.9659  143.3569  159.6257 C.ar    1  UNL1        0.1019
     18 N         143.7208  142.4937  158.6586 N.ar    1  UNL1       -0.2076
     19 C         143.8203  141.0154  158.8925 C.ar    1  UNL1        0.2598
     20 C         143.1648  140.4003  160.0934 C.ar    1  UNL1        0.1879
     21 O         144.5751  140.1522  157.9255 O.3     1  UNL1       -0.4541
     22 C         145.0869  140.7349  156.6416 C.3     1  UNL1        0.2543
     23 O         143.2643  138.9220  160.3272 O.3     1  UNL1       -0.4670
     24 C         142.5141  137.9706  159.4428 C.3     1  UNL1        0.2527
     25 C         140.6593  139.6390  162.0832 C.3     1  UNL1        0.1162
     26 O         141.4763  138.6219  162.8234 O.3     1  UNL1       -0.3820
     27 H         140.9846  137.7873  162.8745 H       1  UNL1        0.2107
     28 C         138.8193  141.5371  159.1232 C.ar    1  UNL1        0.2272
     29 C         139.6363  140.5200  159.8634 C.ar    1  UNL1        0.0559
     30 C         139.8423  140.6561  161.3429 C.ar    1  UNL1        0.0117
     31 C         139.2312  141.8094  162.0822 C.ar    1  UNL1        0.0559
     32 C         138.4142  142.8265  161.3419 C.ar    1  UNL1        0.2270
     33 N         138.2083  142.6904  159.8624 N.ar    1  UNL1       -0.1767
     34 C         137.2241  141.3170  157.0843 C.3     1  UNL1        0.2542
     35 O         138.6134  141.4009  157.6436 O.3     1  UNL1       -0.4561
     36 O         137.8032  143.9798  162.0813 O.3     1  UNL1       -0.4640
     37 C         138.2679  144.3125  163.4681 C.3     1  UNL1        0.1676
     38 C         137.6857  144.1741  164.8437 C.3     1  UNL1        0.0437
     39 C         138.9252  144.7829  165.4295 C.3     1  UNL1        0.0074
     40 C         139.5073  144.9212  164.0540 C.3     1  UNL1        0.0437
     41 C         139.5640  138.6297  161.9052 C.3     1  UNL1        0.0491
     42 C         138.3993  138.6123  162.8503 C.3     1  UNL1        0.0750
     43 N         138.6318  138.7098  164.3290 N.3     1  UNL1       -0.2702
     44 C         139.3039  137.5845  165.0583 C.3     1  UNL1        0.0897
     45 C         138.1922  139.9327  165.0783 C.3     1  UNL1        0.0897
@<TRIPOS>BOND
     1    34    35    1
     2    35    28    1
     3    28    29   ar
     4    29    30   ar
     5    30    25    1
     6    25    26    1
     7    25    41    1
     8    41    42    1
     9    42    43    1
    10    43    44    1
    11    43    45    1
    12    25     1    1
    13     1     2    1
    14     2     3   ar
    15     3     4   ar
    16     4     5   ar
    17     5     6   ar
    18     6     7    1
    19     6     8   ar
    20     8     9   ar
    21     9    10   ar
    22    10    11   ar
    23    11    12   ar
    24    12    13    1
    25    13    14    1
    26     1    15    1
    27    15    16   ar
    28    16    17   ar
    29    17    18   ar
    30    18    19   ar
    31    19    21    1
    32    21    22    1
    33    19    20   ar
    34    20    23    1
    35    23    24    1
    36    30    31   ar
    37    31    32   ar
    38    32    36    1
    39    36    37    1
    40    37    38    1
    41    38    39    1
    42    39    40    1
    43    32    33   ar
    44    33    28   ar
    45    12     2   ar
    46    20    15   ar
    47    40    37    1
    48    10     4   ar
    49    26    27    1
@<TRIPOS>MOLECULE
*****
 45 49 0 0 0
SMALL
GASTEIGER

@<TRIPOS>ATOM
      1 C         141.9393  142.0971  161.9784 C.3     1  UNL1        0.0808
      2 C         142.2068  142.0217  163.4525 C.ar    1  UNL1        0.0375
      3 C         141.1370  141.5358  164.3850 C.ar    1  UNL1        0.0023
      4 C         141.4044  141.4604  165.8590 C.ar    1  UNL1        0.0181
      5 C         140.3346  140.9746  166.7914 C.ar    1  UNL1        0.0082
      6 C         140.6021  140.8991  168.2655 C.ar    1  UNL1        0.0347
      7 BR        139.5323  140.4133  169.1980 Br      1  UNL1       -0.0490
      8 C         141.9393  141.3095  168.8071 C.ar    1  UNL1        0.0082
      9 C         143.0091  141.7953  167.8746 C.ar    1  UNL1        0.0197
     10 C         142.7417  141.8708  166.4006 C.ar    1  UNL1        0.0844
     11 N         143.8115  142.3566  165.4681 N.ar    1  UNL1       -0.2119
     12 C         143.5440  142.4320  163.9941 C.ar    1  UNL1        0.2211
     13 O         144.6138  142.9179  163.0616 O.3     1  UNL1       -0.4563
     14 C         145.6570  141.8404  163.0320 C.3     1  UNL1        0.2542
     15 C         142.5570  141.0924  161.0517 C.ar    1  UNL1        0.0245
     16 C         142.3611  139.6257  161.2973 C.ar    1  UNL1        0.0200
     17 C         142.9788  138.6210  160.3706 C.ar    1  UNL1        0.1019
     18 N         143.7926  139.0830  159.1982 N.ar    1  UNL1       -0.2076
     19 C         143.9885  140.5497  158.9526 C.ar    1  UNL1        0.2598
     20 C         143.3707  141.5544  159.8794 C.ar    1  UNL1        0.1879
     21 O         144.8022  141.0117  157.7802 O.3     1  UNL1       -0.4541
     22 C         144.3707  140.6674  156.3855 C.3     1  UNL1        0.2543
     23 O         143.5666  143.0211  159.6338 O.3     1  UNL1       -0.4670
     24 C         142.9680  143.6646  158.4181 C.3     1  UNL1        0.2527
     25 C         141.0540  143.1773  161.4312 C.3     1  UNL1        0.1162
     26 O         142.0357  144.2144  161.8902 O.3     1  UNL1       -0.3820
     27 H         141.7076  145.0965  161.6555 H       1  UNL1        0.2107
     28 C         138.7372  140.9962  159.0594 C.ar    1  UNL1        0.2272
     29 C         139.7190  142.0333  159.5184 C.ar    1  UNL1        0.0559
     30 C         140.0723  142.1402  160.9722 C.ar    1  UNL1        0.0117
     31 C         139.4439  141.2100  161.9671 C.ar    1  UNL1        0.0559
     32 C         138.4621  140.1729  161.5081 C.ar    1  UNL1        0.2270
     33 N         138.1088  140.0660  160.0543 N.ar    1  UNL1       -0.1767
     34 C         137.3526  141.8046  157.0150 C.3     1  UNL1        0.2542
     35 O         138.3839  140.8894  157.6055 O.3     1  UNL1       -0.4561
     36 O         137.8337  139.2427  162.5031 O.3     1  UNL1       -0.4640
     37 C         138.6886  138.5356  163.5126 C.3     1  UNL1        0.1676
     38 C         138.6313  138.3374  164.9984 C.3     1  UNL1        0.0437
     39 C         139.8976  137.5355  164.9403 C.3     1  UNL1        0.0074
     40 C         139.9549  137.7336  163.4545 C.3     1  UNL1        0.0437
     41 C         140.1687  144.2575  160.8839 C.3     1  UNL1        0.0491
     42 C         139.5329  145.2487  161.8132 C.3     1  UNL1        0.0750
     43 N         138.9660  144.7908  163.1243 N.3     1  UNL1       -0.2702
     44 C         137.6055  144.1612  163.1743 C.3     1  UNL1        0.0897
     45 C         139.7598  144.9626  164.3855 C.3     1  UNL1        0.0897
@<TRIPOS>BOND
     1    34    35    1
     2    35    28    1
     3    28    29   ar
     4    29    30   ar
     5    30    25    1
     6    25    26    1
     7    25    41    1
     8    41    42    1
     9    42    43    1
    10    43    44    1
    11    43    45    1
    12    25     1    1
    13     1     2    1
    14     2     3   ar
    15     3     4   ar
    16     4     5   ar
    17     5     6   ar
    18     6     7    1
    19     6     8   ar
    20     8     9   ar
    21     9    10   ar
    22    10    11   ar
    23    11    12   ar
    24    12    13    1
    25    13    14    1
    26     1    15    1
    27    15    16   ar
    28    16    17   ar
    29    17    18   ar
    30    18    19   ar
    31    19    21    1
    32    21    22    1
    33    19    20   ar
    34    20    23    1
    35    23    24    1
    36    30    31   ar
    37    31    32   ar
    38    32    36    1
    39    36    37    1
    40    37    38    1
    41    38    39    1
    42    39    40    1
    43    32    33   ar
    44    33    28   ar
    45    12     2   ar
    46    20    15   ar
    47    40    37    1
    48    10     4   ar
    49    26    27    1
@<TRIPOS>MOLECULE
*****
 45 49 0 0 0
SMALL
GASTEIGER

@<TRIPOS>ATOM
      1 C         140.1547  141.5371  161.2950 C.3     1  UNL1        0.0808
      2 C         139.9662  141.0958  162.7162 C.ar    1  UNL1        0.0375
      3 C         140.9997  141.4331  163.7496 C.ar    1  UNL1        0.0023
      4 C         140.8112  140.9918  165.1707 C.ar    1  UNL1        0.0181
      5 C         141.8448  141.3291  166.2042 C.ar    1  UNL1        0.0082
      6 C         141.6562  140.8877  167.6254 C.ar    1  UNL1        0.0347
      7 BR        142.6898  141.2250  168.6588 Br      1  UNL1       -0.0490
      8 C         140.4342  140.1091  168.0131 C.ar    1  UNL1        0.0082
      9 C         139.4007  139.7718  166.9796 C.ar    1  UNL1        0.0197
     10 C         139.5892  140.2131  165.5585 C.ar    1  UNL1        0.0844
     11 N         138.5556  139.8758  164.5251 N.ar    1  UNL1       -0.2119
     12 C         138.7442  140.3172  163.1039 C.ar    1  UNL1        0.2211
     13 O         137.7106  139.9798  162.0704 O.3     1  UNL1       -0.4563
     14 C         137.8108  138.4990  161.8535 C.3     1  UNL1        0.2542
     15 C         140.2818  140.5164  160.2032 C.ar    1  UNL1        0.0245
     16 C         141.3932  139.5098  160.2432 C.ar    1  UNL1        0.0200
     17 C         141.5202  138.4891  159.1515 C.ar    1  UNL1        0.1019
     18 N         140.5359  138.4749  158.0197 N.ar    1  UNL1       -0.2076
     19 C         139.4245  139.4815  157.9797 C.ar    1  UNL1        0.2598
     20 C         139.2975  140.5023  159.0715 C.ar    1  UNL1        0.1879
     21 O         138.4401  139.4673  156.8480 O.3     1  UNL1       -0.4541
     22 C         138.9107  139.6938  155.4419 C.3     1  UNL1        0.2543
     23 O         138.1861  141.5088  159.0315 O.3     1  UNL1       -0.4670
     24 C         138.2037  142.6053  158.0080 C.3     1  UNL1        0.2527
     25 C         140.2162  142.9992  160.9656 C.3     1  UNL1        0.1162
     26 O         138.8223  143.1761  161.4907 O.3     1  UNL1       -0.3820
     27 H         138.5593  144.1057  161.4030 H       1  UNL1        0.2107
     28 C         143.2998  142.9101  158.4690 C.ar    1  UNL1        0.2272
     29 C         141.9059  143.0870  158.9940 C.ar    1  UNL1        0.0559
     30 C         141.6101  142.8223  160.4405 C.ar    1  UNL1        0.0117
     31 C         142.7083  142.3808  161.3620 C.ar    1  UNL1        0.0559
     32 C         144.1022  142.2039  160.8369 C.ar    1  UNL1        0.2270
     33 N         144.3980  142.4686  159.3904 N.ar    1  UNL1       -0.1767
     34 C         142.5834  143.8764  156.1661 C.3     1  UNL1        0.2542
     35 O         143.5956  143.1748  157.0224 O.3     1  UNL1       -0.4561
     36 O         145.2003  141.7623  161.7584 O.3     1  UNL1       -0.4640
     37 C         144.9070  140.7914  162.8636 C.3     1  UNL1        0.1676
     38 C         144.2981  139.4226  162.9391 C.3     1  UNL1        0.0437
     39 C         144.4921  139.4184  164.4266 C.3     1  UNL1        0.0074
     40 C         145.1009  140.7872  164.3510 C.3     1  UNL1        0.0437
     41 C         140.2777  144.4613  160.6362 C.3     1  UNL1        0.0491
     42 C         140.0663  145.4826  161.7145 C.3     1  UNL1        0.0750
     43 N         140.5065  145.1925  163.1188 N.3     1  UNL1       -0.2702
     44 C         141.9625  145.2483  163.4750 C.3     1  UNL1        0.0897
     45 C         139.4906  144.8467  164.1669 C.3     1  UNL1        0.0897
@<TRIPOS>BOND
     1    34    35    1
     2    35    28    1
     3    28    29   ar
     4    29    30   ar
     5    30    25    1
     6    25    26    1
     7    25    41    1
     8    41    42    1
     9    42    43    1
    10    43    44    1
    11    43    45    1
    12    25     1    1
    13     1     2    1
    14     2     3   ar
    15     3     4   ar
    16     4     5   ar
    17     5     6   ar
    18     6     7    1
    19     6     8   ar
    20     8     9   ar
    21     9    10   ar
    22    10    11   ar
    23    11    12   ar
    24    12    13    1
    25    13    14    1
    26     1    15    1
    27    15    16   ar
    28    16    17   ar
    29    17    18   ar
    30    18    19   ar
    31    19    21    1
    32    21    22    1
    33    19    20   ar
    34    20    23    1
    35    23    24    1
    36    30    31   ar
    37    31    32   ar
    38    32    36    1
    39    36    37    1
    40    37    38    1
    41    38    39    1
    42    39    40    1
    43    32    33   ar
    44    33    28   ar
    45    12     2   ar
    46    20    15   ar
    47    40    37    1
    48    10     4   ar
    49    26    27    1
@<TRIPOS>MOLECULE
*****
 45 49 0 0 0
SMALL
GASTEIGER

@<TRIPOS>ATOM
      1 C         140.9838  140.5616  162.4791 C.3     1  UNL1        0.0808
      2 C         141.4156  140.2714  163.8860 C.ar    1  UNL1        0.0375
      3 C         141.3788  141.3568  164.9208 C.ar    1  UNL1        0.0023
      4 C         141.8105  141.0666  166.3277 C.ar    1  UNL1        0.0181
      5 C         141.7737  142.1520  167.3624 C.ar    1  UNL1        0.0082
      6 C         142.2055  141.8618  168.7694 C.ar    1  UNL1        0.0347
      7 BR        142.1687  142.9471  169.8041 Br      1  UNL1       -0.0490
      8 C         142.6740  140.4863  169.1415 C.ar    1  UNL1        0.0082
      9 C         142.7108  139.4010  168.1068 C.ar    1  UNL1        0.0197
     10 C         142.2791  139.6911  166.6999 C.ar    1  UNL1        0.0844
     11 N         142.3158  138.6058  165.6651 N.ar    1  UNL1       -0.2119
     12 C         141.8841  138.8960  164.2582 C.ar    1  UNL1        0.2211
     13 O         141.9209  137.8106  163.2234 O.3     1  UNL1       -0.4563
     14 C         140.7729  136.8986  163.5400 C.3     1  UNL1        0.2542
     15 C         141.7987  140.0569  161.3253 C.ar    1  UNL1        0.0245
     16 C         143.2598  140.3849  161.2387 C.ar    1  UNL1        0.0200
     17 C         144.0747  139.8802  160.0849 C.ar    1  UNL1        0.1019
     18 N         143.4284  139.0475  159.0177 N.ar    1  UNL1       -0.2076
     19 C         141.9673  138.7195  159.1043 C.ar    1  UNL1        0.2598
     20 C         141.1524  139.2242  160.2581 C.ar    1  UNL1        0.1879
     21 O         141.3210  137.8868  158.0371 O.3     1  UNL1       -0.4541
     22 C         141.1409  138.4450  156.6565 C.3     1  UNL1        0.2543
     23 O         139.6913  138.8963  160.3447 O.3     1  UNL1       -0.4670
     24 C         138.7245  139.5189  159.3815 C.3     1  UNL1        0.2527
     25 C         139.7372  141.3565  162.2260 C.3     1  UNL1        0.1162
     26 O         138.9220  140.2923  162.8989 O.3     1  UNL1       -0.3820
     27 H         137.9862  140.5476  162.8897 H       1  UNL1        0.2107
     28 C         141.0370  143.9102  159.4802 C.ar    1  UNL1        0.2272
     29 C         140.2218  142.8460  160.1531 C.ar    1  UNL1        0.0559
     30 C         140.5524  142.4208  161.5530 C.ar    1  UNL1        0.0117
     31 C         141.6983  143.0598  162.2800 C.ar    1  UNL1        0.0559
     32 C         142.5136  144.1240  161.6071 C.ar    1  UNL1        0.2270
     33 N         142.1829  144.5492  160.2072 N.ar    1  UNL1       -0.1767
     34 C         140.4655  145.7838  157.7734 C.3     1  UNL1        0.2542
     35 O         140.7063  144.3354  158.0802 O.3     1  UNL1       -0.4561
     36 O         143.6595  144.7630  162.3341 O.3     1  UNL1       -0.4640
     37 C         144.0934  144.2289  163.6670 C.3     1  UNL1        0.1676
     38 C         144.1009  144.7584  165.0704 C.3     1  UNL1        0.0437
     39 C         144.7071  143.4736  165.5520 C.3     1  UNL1        0.0074
     40 C         144.6996  142.9441  164.1485 C.3     1  UNL1        0.0437
     41 C         138.4906  142.1514  161.9729 C.3     1  UNL1        0.0491
     42 C         137.8461  142.9127  163.0933 C.3     1  UNL1        0.0750
     43 N         138.4957  144.1550  163.6269 N.3     1  UNL1       -0.2702
     44 C         138.8238  144.2620  165.0866 C.3     1  UNL1        0.0897
     45 C         138.8171  145.2904  162.7007 C.3     1  UNL1        0.0897
@<TRIPOS>BOND
     1    34    35    1
     2    35    28    1
     3    28    29   ar
     4    29    30   ar
     5    30    25    1
     6    25    26    1
     7    25    41    1
     8    41    42    1
     9    42    43    1
    10    43    44    1
    11    43    45    1
    12    25     1    1
    13     1     2    1
    14     2     3   ar
    15     3     4   ar
    16     4     5   ar
    17     5     6   ar
    18     6     7    1
    19     6     8   ar
    20     8     9   ar
    21     9    10   ar
    22    10    11   ar
    23    11    12   ar
    24    12    13    1
    25    13    14    1
    26     1    15    1
    27    15    16   ar
    28    16    17   ar
    29    17    18   ar
    30    18    19   ar
    31    19    21    1
    32    21    22    1
    33    19    20   ar
    34    20    23    1
    35    23    24    1
    36    30    31   ar
    37    31    32   ar
    38    32    36    1
    39    36    37    1
    40    37    38    1
    41    38    39    1
    42    39    40    1
    43    32    33   ar
    44    33    28   ar
    45    12     2   ar
    46    20    15   ar
    47    40    37    1
    48    10     4   ar
    49    26    27    1
@<TRIPOS>MOLECULE
*****
 45 49 0 0 0
SMALL
GASTEIGER

@<TRIPOS>ATOM
      1 C         141.4708  140.4332  160.6447 C.3     1  UNL1        0.0808
      2 C         141.6886  140.1180  162.0950 C.ar    1  UNL1        0.0375
      3 C         141.3094  141.1195  163.1453 C.ar    1  UNL1        0.0023
      4 C         141.5272  140.8044  164.5955 C.ar    1  UNL1        0.0181
      5 C         141.1479  141.8059  165.6459 C.ar    1  UNL1        0.0082
      6 C         141.3658  141.4907  167.0962 C.ar    1  UNL1        0.0347
      7 BR        140.9865  142.4922  168.1465 Br      1  UNL1       -0.0490
      8 C         141.9629  140.1741  167.4961 C.ar    1  UNL1        0.0082
      9 C         142.3422  139.1726  166.4457 C.ar    1  UNL1        0.0197
     10 C         142.1243  139.4877  164.9955 C.ar    1  UNL1        0.0844
     11 N         142.5036  138.4862  163.9452 N.ar    1  UNL1       -0.2119
     12 C         142.2858  138.8014  162.4949 C.ar    1  UNL1        0.2211
     13 O         142.6650  137.7999  161.4446 O.3     1  UNL1       -0.4563
     14 C         144.1609  137.8513  161.3454 C.3     1  UNL1        0.2542
     15 C         142.6155  140.9096  159.8006 C.ar    1  UNL1        0.0245
     16 C         143.3210  142.1875  160.1458 C.ar    1  UNL1        0.0200
     17 C         144.4657  142.6639  159.3016 C.ar    1  UNL1        0.1019
     18 N         144.9049  141.8624  158.1122 N.ar    1  UNL1       -0.2076
     19 C         144.1994  140.5845  157.7669 C.ar    1  UNL1        0.2598
     20 C         143.0547  140.1081  158.6112 C.ar    1  UNL1        0.1879
     21 O         144.6386  139.7830  156.5776 O.3     1  UNL1       -0.4541
     22 C         145.7351  140.2953  155.6915 C.3     1  UNL1        0.2543
     23 O         142.3491  138.8302  158.2659 O.3     1  UNL1       -0.4670
     24 C         141.4924  138.7549  157.0369 C.3     1  UNL1        0.2527
     25 C         140.1082  140.2719  160.0386 C.3     1  UNL1        0.1162
     26 O         140.1758  138.7930  160.2801 O.3     1  UNL1       -0.3820
     27 H         139.3597  138.3759  159.9626 H       1  UNL1        0.2107
     28 C         140.0024  143.7629  158.1541 C.ar    1  UNL1        0.2272
     29 C         140.0701  142.2840  158.3955 C.ar    1  UNL1        0.0559
     30 C         140.0405  141.7508  159.7972 C.ar    1  UNL1        0.0117
     31 C         139.9433  142.6965  160.9575 C.ar    1  UNL1        0.0559
     32 C         139.8757  144.1754  160.7160 C.ar    1  UNL1        0.2270
     33 N         139.9052  144.7086  159.3144 N.ar    1  UNL1       -0.1767
     34 C         140.7799  143.5554  155.6838 C.3     1  UNL1        0.2542
     35 O         140.0320  144.2962  156.7523 O.3     1  UNL1       -0.4561
     36 O         139.7784  145.1210  161.8764 O.3     1  UNL1       -0.4640
     37 C         139.0146  144.7246  163.1050 C.3     1  UNL1        0.1676
     38 C         139.2902  144.7496  164.5793 C.3     1  UNL1        0.0437
     39 C         137.9345  144.1640  164.8426 C.3     1  UNL1        0.0074
     40 C         137.6590  144.1391  163.3683 C.3     1  UNL1        0.0437
     41 C         138.7456  140.1106  159.4326 C.3     1  UNL1        0.0491
     42 C         137.5448  139.9540  160.3178 C.3     1  UNL1        0.0750
     43 N         137.7131  139.4944  161.7357 N.3     1  UNL1       -0.2702
     44 C         137.7340  140.4966  162.8515 C.3     1  UNL1        0.0897
     45 C         137.8606  138.0325  162.0378 C.3     1  UNL1        0.0897
@<TRIPOS>BOND
     1    34    35    1
     2    35    28    1
     3    28    29   ar
     4    29    30   ar
     5    30    25    1
     6    25    26    1
     7    25    41    1
     8    41    42    1
     9    42    43    1
    10    43    44    1
    11    43    45    1
    12    25     1    1
    13     1     2    1
    14     2     3   ar
    15     3     4   ar
    16     4     5   ar
    17     5     6   ar
    18     6     7    1
    19     6     8   ar
    20     8     9   ar
    21     9    10   ar
    22    10    11   ar
    23    11    12   ar
    24    12    13    1
    25    13    14    1
    26     1    15    1
    27    15    16   ar
    28    16    17   ar
    29    17    18   ar
    30    18    19   ar
    31    19    21    1
    32    21    22    1
    33    19    20   ar
    34    20    23    1
    35    23    24    1
    36    30    31   ar
    37    31    32   ar
    38    32    36    1
    39    36    37    1
    40    37    38    1
    41    38    39    1
    42    39    40    1
    43    32    33   ar
    44    33    28   ar
    45    12     2   ar
    46    20    15   ar
    47    40    37    1
    48    10     4   ar
    49    26    27    1
@<TRIPOS>MOLECULE
*****
 45 49 0 0 0
SMALL
GASTEIGER

@<TRIPOS>ATOM
      1 C         139.5482  141.0599  162.2452 C.3     1  UNL1        0.0808
      2 C         139.7275  141.6483  163.6133 C.ar    1  UNL1        0.0375
      3 C         140.6454  140.9884  164.5991 C.ar    1  UNL1        0.0023
      4 C         140.8247  141.5768  165.9672 C.ar    1  UNL1        0.0181
      5 C         141.7426  140.9169  166.9530 C.ar    1  UNL1        0.0082
      6 C         141.9219  141.5053  168.3212 C.ar    1  UNL1        0.0347
      7 BR        142.8398  140.8454  169.3070 Br      1  UNL1       -0.0490
      8 C         141.1833  142.7536  168.7033 C.ar    1  UNL1        0.0082
      9 C         140.2654  143.4136  167.7175 C.ar    1  UNL1        0.0197
     10 C         140.0861  142.8252  166.3494 C.ar    1  UNL1        0.0844
     11 N         139.1682  143.4851  165.3636 N.ar    1  UNL1       -0.2119
     12 C         138.9889  142.8967  163.9955 C.ar    1  UNL1        0.2211
     13 O         138.0710  143.5566  163.0096 O.3     1  UNL1       -0.4563
     14 C         138.6137  144.9393  162.8008 C.3     1  UNL1        0.2542
     15 C         139.6344  141.9395  161.0332 C.ar    1  UNL1        0.0245
     16 C         138.5075  141.9654  160.0436 C.ar    1  UNL1        0.0200
     17 C         138.5937  142.8450  158.8317 C.ar    1  UNL1        0.1019
     18 N         139.8069  143.6987  158.6093 N.ar    1  UNL1       -0.2076
     19 C         140.9339  143.6727  159.5989 C.ar    1  UNL1        0.2598
     20 C         140.8476  142.7931  160.8109 C.ar    1  UNL1        0.1879
     21 O         142.1470  144.5264  159.3765 O.3     1  UNL1       -0.4541
     22 C         142.2627  145.3556  158.1320 C.3     1  UNL1        0.2543
     23 O         141.9745  142.7671  161.8005 O.3     1  UNL1       -0.4670
     24 C         142.2637  143.9764  162.6397 C.3     1  UNL1        0.2527
     25 C         139.2827  139.5919  162.0891 C.3     1  UNL1        0.1162
     26 O         137.9615  139.7574  162.7798 O.3     1  UNL1       -0.3820
     27 H         137.5148  138.8980  162.8335 H       1  UNL1        0.2107
     28 C         141.9724  139.0103  159.2295 C.ar    1  UNL1        0.2272
     29 C         140.6512  139.1758  159.9202 C.ar    1  UNL1        0.0559
     30 C         140.6039  139.4263  161.3984 C.ar    1  UNL1        0.0117
     31 C         141.8777  139.5114  162.1858 C.ar    1  UNL1        0.0559
     32 C         143.1989  139.3459  161.4951 C.ar    1  UNL1        0.2270
     33 N         143.2462  139.0953  160.0169 N.ar    1  UNL1       -0.1767
     34 C         142.5002  137.4379  157.2297 C.3     1  UNL1        0.2542
     35 O         142.0197  138.7597  157.7513 O.3     1  UNL1       -0.4561
     36 O         144.4728  139.4309  162.2826 O.3     1  UNL1       -0.4640
     37 C         144.7523  140.6376  163.1287 C.3     1  UNL1        0.1676
     38 C         145.4516  141.9467  162.9111 C.3     1  UNL1        0.0437
     39 C         145.1476  142.3441  164.3253 C.3     1  UNL1        0.0074
     40 C         144.4482  141.0351  164.5427 C.3     1  UNL1        0.0437
     41 C         139.0172  138.1238  161.9330 C.3     1  UNL1        0.0491
     42 C         138.6658  137.2936  163.1319 C.3     1  UNL1        0.0750
     43 N         139.3701  137.5238  164.4361 N.3     1  UNL1       -0.2702
     44 C         138.6147  138.0741  165.6095 C.3     1  UNL1        0.0897
     45 C         140.8297  137.2039  164.5670 C.3     1  UNL1        0.0897
@<TRIPOS>BOND
     1    34    35    1
     2    35    28    1
     3    28    29   ar
     4    29    30   ar
     5    30    25    1
     6    25    26    1
     7    25    41    1
     8    41    42    1
     9    42    43    1
    10    43    44    1
    11    43    45    1
    12    25     1    1
    13     1     2    1
    14     2     3   ar
    15     3     4   ar
    16     4     5   ar
    17     5     6   ar
    18     6     7    1
    19     6     8   ar
    20     8     9   ar
    21     9    10   ar
    22    10    11   ar
    23    11    12   ar
    24    12    13    1
    25    13    14    1
    26     1    15    1
    27    15    16   ar
    28    16    17   ar
    29    17    18   ar
    30    18    19   ar
    31    19    21    1
    32    21    22    1
    33    19    20   ar
    34    20    23    1
    35    23    24    1
    36    30    31   ar
    37    31    32   ar
    38    32    36    1
    39    36    37    1
    40    37    38    1
    41    38    39    1
    42    39    40    1
    43    32    33   ar
    44    33    28   ar
    45    12     2   ar
    46    20    15   ar
    47    40    37    1
    48    10     4   ar
    49    26    27    1
@<TRIPOS>MOLECULE
*****
 45 49 0 0 0
SMALL
GASTEIGER

@<TRIPOS>ATOM
      1 C         140.8213  141.4856  159.0427 C.3     1  UNL1        0.0808
      2 C         141.4284  142.3646  160.0958 C.ar    1  UNL1        0.0375
      3 C         141.7378  141.8051  161.4527 C.ar    1  UNL1        0.0023
      4 C         142.3448  142.6840  162.5057 C.ar    1  UNL1        0.0181
      5 C         142.6542  142.1246  163.8627 C.ar    1  UNL1        0.0082
      6 C         143.2613  143.0036  164.9158 C.ar    1  UNL1        0.0347
      7 BR        143.5706  142.4442  166.2727 Br      1  UNL1       -0.0490
      8 C         143.5590  144.4420  164.6118 C.ar    1  UNL1        0.0082
      9 C         143.2496  145.0014  163.2549 C.ar    1  UNL1        0.0197
     10 C         142.6426  144.1225  162.2019 C.ar    1  UNL1        0.0844
     11 N         142.3332  144.6820  160.8449 N.ar    1  UNL1       -0.2119
     12 C         141.7261  143.8029  159.7918 C.ar    1  UNL1        0.2211
     13 O         141.4168  144.3624  158.4349 O.3     1  UNL1       -0.4563
     14 C         140.3650  145.4101  158.6496 C.3     1  UNL1        0.2542
     15 C         141.5859  140.3067  158.5176 C.ar    1  UNL1        0.0245
     16 C         141.1868  138.9165  158.9153 C.ar    1  UNL1        0.0200
     17 C         141.9514  137.7376  158.3903 C.ar    1  UNL1        0.1019
     18 N         143.1150  137.9489  157.4675 N.ar    1  UNL1       -0.2076
     19 C         143.5140  139.3391  157.0698 C.ar    1  UNL1        0.2598
     20 C         142.7494  140.5180  157.5949 C.ar    1  UNL1        0.1879
     21 O         144.6775  139.5504  156.1470 O.3     1  UNL1       -0.4541
     22 C         144.9081  138.6082  155.0029 C.3     1  UNL1        0.2543
     23 O         143.1484  141.9082  157.1972 O.3     1  UNL1       -0.4670
     24 C         144.4050  142.5144  157.7482 C.3     1  UNL1        0.2527
     25 C         139.4497  141.7855  158.5147 C.3     1  UNL1        0.1162
     26 O         140.0226  141.9921  157.1439 O.3     1  UNL1       -0.3820
     27 H         139.3098  142.2195  156.5265 H       1  UNL1        0.2107
     28 C         137.9028  142.5546  162.0876 C.ar    1  UNL1        0.2272
     29 C         138.4757  142.7612  160.7168 C.ar    1  UNL1        0.0559
     30 C         138.8769  141.5789  159.8856 C.ar    1  UNL1        0.0117
     31 C         138.7053  140.1899  160.4251 C.ar    1  UNL1        0.0559
     32 C         138.1324  139.9832  161.7960 C.ar    1  UNL1        0.2270
     33 N         137.7312  141.1656  162.6272 N.ar    1  UNL1       -0.1767
     34 C         137.8504  143.7817  164.3771 C.3     1  UNL1        0.2542
     35 O         137.5016  143.7370  162.9189 O.3     1  UNL1       -0.4561
     36 O         137.9608  138.5941  162.3355 O.3     1  UNL1       -0.4640
     37 C         138.9854  138.0201  163.2687 C.3     1  UNL1        0.1676
     38 C         139.0437  137.7490  164.7429 C.3     1  UNL1        0.0437
     39 C         140.4344  137.2083  164.5884 C.3     1  UNL1        0.0074
     40 C         140.3760  137.4795  163.1143 C.3     1  UNL1        0.0437
     41 C         138.0781  142.0854  157.9868 C.3     1  UNL1        0.0491
     42 C         137.5206  141.2831  156.8485 C.3     1  UNL1        0.0750
     43 N         137.3505  141.9144  155.4985 N.3     1  UNL1       -0.2702
     44 C         137.8595  141.2140  154.2736 C.3     1  UNL1        0.0897
     45 C         136.6714  143.2460  155.3734 C.3     1  UNL1        0.0897
@<TRIPOS>BOND
     1    34    35    1
     2    35    28    1
     3    28    29   ar
     4    29    30   ar
     5    30    25    1
     6    25    26    1
     7    25    41    1
     8    41    42    1
     9    42    43    1
    10    43    44    1
    11    43    45    1
    12    25     1    1
    13     1     2    1
    14     2     3   ar
    15     3     4   ar
    16     4     5   ar
    17     5     6   ar
    18     6     7    1
    19     6     8   ar
    20     8     9   ar
    21     9    10   ar
    22    10    11   ar
    23    11    12   ar
    24    12    13    1
    25    13    14    1
    26     1    15    1
    27    15    16   ar
    28    16    17   ar
    29    17    18   ar
    30    18    19   ar
    31    19    21    1
    32    21    22    1
    33    19    20   ar
    34    20    23    1
    35    23    24    1
    36    30    31   ar
    37    31    32   ar
    38    32    36    1
    39    36    37    1
    40    37    38    1
    41    38    39    1
    42    39    40    1
    43    32    33   ar
    44    33    28   ar
    45    12     2   ar
    46    20    15   ar
    47    40    37    1
    48    10     4   ar
    49    26    27    1
@<TRIPOS>MOLECULE
*****
 45 49 0 0 0
SMALL
GASTEIGER

@<TRIPOS>ATOM
      1 C         140.1098  141.4214  161.6592 C.3     1  UNL1        0.0808
      2 C         140.1504  141.8659  163.0913 C.ar    1  UNL1        0.0375
      3 C         140.9679  141.1022  164.0906 C.ar    1  UNL1        0.0023
      4 C         141.0086  141.5465  165.5227 C.ar    1  UNL1        0.0181
      5 C         141.8260  140.7829  166.5220 C.ar    1  UNL1        0.0082
      6 C         141.8666  141.2273  167.9541 C.ar    1  UNL1        0.0347
      7 BR        142.6841  140.4636  168.9534 Br      1  UNL1       -0.0490
      8 C         141.0899  142.4353  168.3869 C.ar    1  UNL1        0.0082
      9 C         140.2725  143.1989  167.3876 C.ar    1  UNL1        0.0197
     10 C         140.2318  142.7546  165.9555 C.ar    1  UNL1        0.0844
     11 N         139.4144  143.5183  164.9562 N.ar    1  UNL1       -0.2119
     12 C         139.3737  143.0739  163.5241 C.ar    1  UNL1        0.2211
     13 O         138.5563  143.8375  162.5248 O.3     1  UNL1       -0.4563
     14 C         139.1320  145.2222  162.4915 C.3     1  UNL1        0.2542
     15 C         140.5120  142.3690  160.5682 C.ar    1  UNL1        0.0245
     16 C         141.8430  143.0582  160.6262 C.ar    1  UNL1        0.0200
     17 C         142.2451  144.0058  159.5352 C.ar    1  UNL1        0.1019
     18 N         141.3163  144.2641  158.3860 N.ar    1  UNL1       -0.2076
     19 C         139.9853  143.5749  158.3280 C.ar    1  UNL1        0.2598
     20 C         139.5831  142.6273  159.4191 C.ar    1  UNL1        0.1879
     21 O         139.0564  143.8333  157.1789 O.3     1  UNL1       -0.4541
     22 C         139.4008  144.8745  156.1556 C.3     1  UNL1        0.2543
     23 O         138.2521  141.9381  159.3610 O.3     1  UNL1       -0.4670
     24 C         137.9695  140.9430  158.2746 C.3     1  UNL1        0.2527
     25 C         139.6669  140.0295  161.3181 C.3     1  UNL1        0.1162
     26 O         138.3206  140.3112  161.9164 O.3     1  UNL1       -0.3820
     27 H         137.7604  139.5233  161.8374 H       1  UNL1        0.2107
     28 C         142.4637  138.9617  158.7128 C.ar    1  UNL1        0.2272
     29 C         141.1173  139.2435  159.3110 C.ar    1  UNL1        0.0559
     30 C         141.0133  139.7477  160.7199 C.ar    1  UNL1        0.0117
     31 C         142.2556  139.9702  161.5305 C.ar    1  UNL1        0.0559
     32 C         143.6020  139.6884  160.9322 C.ar    1  UNL1        0.2270
     33 N         143.7060  139.1842  159.5234 N.ar    1  UNL1       -0.1767
     34 C         142.9015  137.0181  157.0452 C.3     1  UNL1        0.2542
     35 O         142.5677  138.4575  157.3039 O.3     1  UNL1       -0.4561
     36 O         144.8444  139.9109  161.7429 O.3     1  UNL1       -0.4640
     37 C         144.8503  140.9327  162.8410 C.3     1  UNL1        0.1676
     38 C         144.8333  140.8789  164.3400 C.3     1  UNL1        0.0437
     39 C         144.8588  142.3778  164.3941 C.3     1  UNL1        0.0074
     40 C         144.8758  142.4315  162.8952 C.3     1  UNL1        0.0437
     41 C         139.2241  138.6375  160.9771 C.3     1  UNL1        0.0491
     42 C         138.7697  137.7078  162.0631 C.3     1  UNL1        0.0750
     43 N         139.5008  137.6697  163.3723 N.3     1  UNL1       -0.2702
     44 C         140.9045  137.1445  163.4325 C.3     1  UNL1        0.0897
     45 C         138.8281  138.1570  164.6214 C.3     1  UNL1        0.0897
@<TRIPOS>BOND
     1    34    35    1
     2    35    28    1
     3    28    29   ar
     4    29    30   ar
     5    30    25    1
     6    25    26    1
     7    25    41    1
     8    41    42    1
     9    42    43    1
    10    43    44    1
    11    43    45    1
    12    25     1    1
    13     1     2    1
    14     2     3   ar
    15     3     4   ar
    16     4     5   ar
    17     5     6   ar
    18     6     7    1
    19     6     8   ar
    20     8     9   ar
    21     9    10   ar
    22    10    11   ar
    23    11    12   ar
    24    12    13    1
    25    13    14    1
    26     1    15    1
    27    15    16   ar
    28    16    17   ar
    29    17    18   ar
    30    18    19   ar
    31    19    21    1
    32    21    22    1
    33    19    20   ar
    34    20    23    1
    35    23    24    1
    36    30    31   ar
    37    31    32   ar
    38    32    36    1
    39    36    37    1
    40    37    38    1
    41    38    39    1
    42    39    40    1
    43    32    33   ar
    44    33    28   ar
    45    12     2   ar
    46    20    15   ar
    47    40    37    1
    48    10     4   ar
    49    26    27    1
