@<TRIPOS>MOLECULE
*****
 32 35 0 0 0
SMALL
GASTEIGER

@<TRIPOS>ATOM
      1 C         140.7288  136.7952  163.9714 C.3     1  UNL1        0.0203
      2 C         139.9455  138.0657  164.1206 C.3     1  UNL1        0.0888
      3 N         139.9766  138.8180  165.4180 N.3     1  UNL1       -0.2713
      4 C         138.8002  138.7602  166.3468 C.3     1  UNL1        0.0749
      5 C         138.8313  139.5124  167.6442 C.3     1  UNL1        0.0485
      6 C         140.0387  140.3225  168.0127 C.3     1  UNL1        0.1096
      7 O         139.1778  140.5767  169.2145 O.3     1  UNL1       -0.3826
      8 C         141.2152  140.3804  167.0838 C.3     1  UNL1        0.0485
      9 C         141.1841  139.6281  165.7865 C.3     1  UNL1        0.0749
     10 H         138.3373  140.1027  169.1163 H       1  UNL1        0.2107
     11 C         140.9472  141.2209  168.7986 C.ar    1  UNL1        0.0019
     12 C         140.4768  142.5820  169.2180 C.ar    1  UNL1        0.0003
     13 C         141.3852  143.4804  170.0038 C.ar    1  UNL1        0.0294
     14 C         142.7642  143.0176  170.3703 C.ar    1  UNL1        0.1401
     15 F         143.6727  143.9160  171.1562 F       1  UNL1       -0.2042
     16 C         143.2347  141.6564  169.9510 C.ar    1  UNL1        0.0294
     17 C         142.3262  140.7581  169.1651 C.ar    1  UNL1        0.0003
     18 C         139.1311  138.5839  162.9725 C.3     1  UNL1        0.1473
     19 O         138.4802  137.6241  162.0211 O.3     1  UNL1       -0.3787
     20 H         137.9957  138.1199  161.3427 H       1  UNL1        0.2108
     21 C         138.9675  140.0620  162.7758 C.ar    1  UNL1        0.0086
     22 C         137.6881  140.7348  163.1762 C.ar    1  UNL1       -0.0004
     23 C         137.5245  142.2128  162.9794 C.ar    1  UNL1        0.0175
     24 C         138.6404  143.0180  162.3823 C.ar    1  UNL1        0.0848
     25 C         139.9198  142.3451  161.9819 C.ar    1  UNL1        0.1523
     26 C         140.0834  140.8671  162.1786 C.ar    1  UNL1        0.0363
     27 O         141.0357  143.1503  161.3848 O.3     1  UNL1       -0.4644
     28 C         140.8722  144.6283  161.1880 C.3     1  UNL1        0.2897
     29 C         139.5927  145.3012  161.5884 C.2     1  UNL1        0.2707
     30 O         139.4292  146.7792  161.3916 O.2     1  UNL1       -0.2707
     31 N         138.4768  144.4960  162.1855 N.am    1  UNL1       -0.2785
     32 H         137.6371  144.9377  162.4483 H       1  UNL1        0.1551
@<TRIPOS>BOND
     1     1     2    1
     2     2    18    1
     3    18    19    1
     4    18    21    1
     5    21    22   ar
     6    22    23   ar
     7    23    24   ar
     8    24    25   ar
     9    25    26   ar
    10    25    27    1
    11    27    28    1
    12    28    29    1
    13    29    30    2
    14    29    31   am
    15     2     3    1
    16     3     4    1
    17     4     5    1
    18     5     6    1
    19     6     7    1
    20     6    11    1
    21    11    12   ar
    22    12    13   ar
    23    13    14   ar
    24    14    15    1
    25    14    16   ar
    26    16    17   ar
    27     6     8    1
    28     8     9    1
    29    26    21   ar
    30     9     3    1
    31    31    24    1
    32    17    11   ar
    33    19    20    1
    34    31    32    1
    35     7    10    1
@<TRIPOS>MOLECULE
*****
 32 35 0 0 0
SMALL
GASTEIGER

@<TRIPOS>ATOM
      1 C         138.8526  138.7629  162.8126 C.3     1  UNL1        0.0203
      2 C         138.6223  140.0536  163.5415 C.3     1  UNL1        0.0888
      3 N         139.0641  140.1986  164.9676 N.3     1  UNL1       -0.2713
      4 C         138.4983  139.2958  166.0235 C.3     1  UNL1        0.0749
      5 C         138.9401  139.4408  167.4497 C.3     1  UNL1        0.0485
      6 C         139.9476  140.4886  167.8199 C.3     1  UNL1        0.1096
      7 O         139.7021  139.8758  169.1669 O.3     1  UNL1       -0.3826
      8 C         140.5134  141.3914  166.7640 C.3     1  UNL1        0.0485
      9 C         140.0717  141.2464  165.3378 C.3     1  UNL1        0.0749
     10 H         139.0518  139.1609  169.0832 H       1  UNL1        0.2107
     11 C         140.8699  141.3235  168.6579 C.ar    1  UNL1        0.0019
     12 C         142.2463  140.8241  168.9832 C.ar    1  UNL1        0.0003
     13 C         143.1687  141.6589  169.8212 C.ar    1  UNL1        0.0294
     14 C         142.7144  142.9935  170.3340 C.ar    1  UNL1        0.1401
     15 F         143.6367  143.8283  171.1719 F       1  UNL1       -0.2042
     16 C         141.3380  143.4930  170.0087 C.ar    1  UNL1        0.0294
     17 C         140.4157  142.6580  169.1707 C.ar    1  UNL1        0.0003
     18 C         137.9503  141.1991  162.8444 C.3     1  UNL1        0.1473
     19 O         136.4538  141.3018  162.8419 O.3     1  UNL1       -0.3787
     20 H         136.1849  142.0943  162.3514 H       1  UNL1        0.2108
     21 C         138.7748  142.2420  162.1495 C.ar    1  UNL1        0.0086
     22 C         139.1891  143.4825  162.8840 C.ar    1  UNL1       -0.0004
     23 C         140.0135  144.5253  162.1892 C.ar    1  UNL1        0.0175
     24 C         140.4236  144.3276  160.7599 C.ar    1  UNL1        0.0848
     25 C         140.0093  143.0871  160.0255 C.ar    1  UNL1        0.1523
     26 C         139.1849  142.0443  160.7203 C.ar    1  UNL1        0.0363
     27 O         140.4194  142.8894  158.5962 O.3     1  UNL1       -0.4644
     28 C         141.2439  143.9322  157.9014 C.3     1  UNL1        0.2897
     29 C         141.6582  145.1728  158.6359 C.2     1  UNL1        0.2707
     30 O         142.4826  146.2156  157.9410 O.2     1  UNL1       -0.2707
     31 N         141.2481  145.3705  160.0651 N.am    1  UNL1       -0.2785
     32 H         141.5200  146.1847  160.5471 H       1  UNL1        0.1551
@<TRIPOS>BOND
     1     1     2    1
     2     2    18    1
     3    18    19    1
     4    18    21    1
     5    21    22   ar
     6    22    23   ar
     7    23    24   ar
     8    24    25   ar
     9    25    26   ar
    10    25    27    1
    11    27    28    1
    12    28    29    1
    13    29    30    2
    14    29    31   am
    15     2     3    1
    16     3     4    1
    17     4     5    1
    18     5     6    1
    19     6     7    1
    20     6    11    1
    21    11    12   ar
    22    12    13   ar
    23    13    14   ar
    24    14    15    1
    25    14    16   ar
    26    16    17   ar
    27     6     8    1
    28     8     9    1
    29    26    21   ar
    30     9     3    1
    31    31    24    1
    32    17    11   ar
    33    19    20    1
    34    31    32    1
    35     7    10    1
@<TRIPOS>MOLECULE
*****
 32 35 0 0 0
SMALL
GASTEIGER

@<TRIPOS>ATOM
      1 C         139.6131  137.5774  164.2432 C.3     1  UNL1        0.0203
      2 C         138.9938  138.7984  164.8562 C.3     1  UNL1        0.0888
      3 N         138.8108  140.0396  164.0342 N.3     1  UNL1       -0.2713
      4 C         137.5207  140.8018  164.1037 C.3     1  UNL1        0.0749
      5 C         137.3377  142.0430  163.2817 C.3     1  UNL1        0.0485
      6 C         138.4447  142.5222  162.3901 C.3     1  UNL1        0.1096
      7 O         137.4149  143.5781  162.1171 O.3     1  UNL1       -0.3826
      8 C         139.7348  141.7600  162.3206 C.3     1  UNL1        0.0485
      9 C         139.9179  140.5188  163.1426 C.3     1  UNL1        0.0749
     10 H         136.6182  143.3956  162.6395 H       1  UNL1        0.2107
     11 C         139.1941  143.3680  161.4037 C.ar    1  UNL1        0.0019
     12 C         139.3162  142.9249  159.9759 C.ar    1  UNL1        0.0003
     13 C         140.0655  143.7707  158.9895 C.ar    1  UNL1        0.0294
     14 C         140.6929  145.0598  159.4310 C.ar    1  UNL1        0.1401
     15 F         141.4423  145.9055  158.4445 F       1  UNL1       -0.2042
     16 C         140.5709  145.5029  160.8588 C.ar    1  UNL1        0.0294
     17 C         139.8214  144.6570  161.8452 C.ar    1  UNL1        0.0003
     18 C         138.5575  138.7780  166.2912 C.3     1  UNL1        0.1473
     19 O         137.4143  137.9044  166.7153 O.3     1  UNL1       -0.3787
     20 H         137.2632  138.0093  167.6677 H       1  UNL1        0.2108
     21 C         139.2645  139.6313  167.3022 C.ar    1  UNL1        0.0086
     22 C         138.6460  139.8676  168.6481 C.ar    1  UNL1       -0.0004
     23 C         139.3530  140.7209  169.6591 C.ar    1  UNL1        0.0175
     24 C         140.6785  141.3379  169.3241 C.ar    1  UNL1        0.0848
     25 C         141.2971  141.1016  167.9782 C.ar    1  UNL1        0.1523
     26 C         140.5901  140.2483  166.9673 C.ar    1  UNL1        0.0363
     27 O         142.6227  141.7185  167.6433 O.3     1  UNL1       -0.4644
     28 C         143.3297  142.5718  168.6542 C.3     1  UNL1        0.2897
     29 C         142.7111  142.8081  170.0002 C.2     1  UNL1        0.2707
     30 O         143.4181  143.6614  171.0111 O.2     1  UNL1       -0.2707
     31 N         141.3855  142.1912  170.3352 N.am    1  UNL1       -0.2785
     32 H         140.9795  142.3463  171.2185 H       1  UNL1        0.1551
@<TRIPOS>BOND
     1     1     2    1
     2     2    18    1
     3    18    19    1
     4    18    21    1
     5    21    22   ar
     6    22    23   ar
     7    23    24   ar
     8    24    25   ar
     9    25    26   ar
    10    25    27    1
    11    27    28    1
    12    28    29    1
    13    29    30    2
    14    29    31   am
    15     2     3    1
    16     3     4    1
    17     4     5    1
    18     5     6    1
    19     6     7    1
    20     6    11    1
    21    11    12   ar
    22    12    13   ar
    23    13    14   ar
    24    14    15    1
    25    14    16   ar
    26    16    17   ar
    27     6     8    1
    28     8     9    1
    29    26    21   ar
    30     9     3    1
    31    31    24    1
    32    17    11   ar
    33    19    20    1
    34    31    32    1
    35     7    10    1
@<TRIPOS>MOLECULE
*****
 32 35 0 0 0
SMALL
GASTEIGER

@<TRIPOS>ATOM
      1 C         144.1012  138.9141  162.1019 C.3     1  UNL1        0.0203
      2 C         144.1969  140.1276  162.9786 C.3     1  UNL1        0.0888
      3 N         143.6902  140.0753  164.3894 N.3     1  UNL1       -0.2713
      4 C         144.0292  138.9057  165.2652 C.3     1  UNL1        0.0749
      5 C         143.5225  138.8534  166.6761 C.3     1  UNL1        0.0485
      6 C         142.6768  139.9708  167.2112 C.3     1  UNL1        0.1096
      7 O         142.7283  139.0820  168.4184 O.3     1  UNL1       -0.3826
      8 C         142.3379  141.1405  166.3354 C.3     1  UNL1        0.0485
      9 C         142.8445  141.1928  164.9245 C.3     1  UNL1        0.0749
     10 H         143.2574  138.2942  168.2176 H       1  UNL1        0.2107
     11 C         141.8490  140.7796  168.1655 C.ar    1  UNL1        0.0019
     12 C         140.5393  140.2435  168.6625 C.ar    1  UNL1        0.0003
     13 C         139.7115  141.0522  169.6168 C.ar    1  UNL1        0.0294
     14 C         140.1935  142.3970  170.0742 C.ar    1  UNL1        0.1401
     15 F         139.3657  143.2057  171.0285 F       1  UNL1       -0.2042
     16 C         141.5033  142.9331  169.5772 C.ar    1  UNL1        0.0294
     17 C         142.3311  142.1243  168.6228 C.ar    1  UNL1        0.0003
     18 C         144.7993  141.3931  162.4444 C.3     1  UNL1        0.1473
     19 O         146.1285  141.8649  162.9550 O.3     1  UNL1       -0.3787
     20 H         146.3713  142.6915  162.5093 H       1  UNL1        0.2108
     21 C         144.0726  142.1870  161.3996 C.ar    1  UNL1        0.0086
     22 C         144.4880  142.0917  159.9614 C.ar    1  UNL1       -0.0004
     23 C         143.7613  142.8856  158.9167 C.ar    1  UNL1        0.0175
     24 C         142.6191  143.7748  159.3101 C.ar    1  UNL1        0.0848
     25 C         142.2037  143.8701  160.7482 C.ar    1  UNL1        0.1523
     26 C         142.9304  143.0762  161.7930 C.ar    1  UNL1        0.0363
     27 O         141.0615  144.7593  161.1416 O.3     1  UNL1       -0.4644
     28 C         140.3348  145.5532  160.0968 C.3     1  UNL1        0.2897
     29 C         140.7502  145.4579  158.6586 C.2     1  UNL1        0.2707
     30 O         140.0234  146.2518  157.6139 O.2     1  UNL1       -0.2707
     31 N         141.8923  144.5687  158.2652 N.am    1  UNL1       -0.2785
     32 H         142.1650  144.5061  157.3213 H       1  UNL1        0.1551
@<TRIPOS>BOND
     1     1     2    1
     2     2    18    1
     3    18    19    1
     4    18    21    1
     5    21    22   ar
     6    22    23   ar
     7    23    24   ar
     8    24    25   ar
     9    25    26   ar
    10    25    27    1
    11    27    28    1
    12    28    29    1
    13    29    30    2
    14    29    31   am
    15     2     3    1
    16     3     4    1
    17     4     5    1
    18     5     6    1
    19     6     7    1
    20     6    11    1
    21    11    12   ar
    22    12    13   ar
    23    13    14   ar
    24    14    15    1
    25    14    16   ar
    26    16    17   ar
    27     6     8    1
    28     8     9    1
    29    26    21   ar
    30     9     3    1
    31    31    24    1
    32    17    11   ar
    33    19    20    1
    34    31    32    1
    35     7    10    1
@<TRIPOS>MOLECULE
*****
 32 35 0 0 0
SMALL
GASTEIGER

@<TRIPOS>ATOM
      1 C         139.2407  138.6874  162.5051 C.3     1  UNL1        0.0203
      2 C         138.7231  139.8714  163.2668 C.3     1  UNL1        0.0888
      3 N         139.0940  140.0562  164.7084 N.3     1  UNL1       -0.2713
      4 C         138.4207  139.2345  165.7674 C.3     1  UNL1        0.0749
      5 C         138.7917  139.4193  167.2090 C.3     1  UNL1        0.0485
      6 C         139.8359  140.4258  167.5917 C.3     1  UNL1        0.1096
      7 O         139.4826  139.8889  168.9470 O.3     1  UNL1       -0.3826
      8 C         140.5092  141.2476  166.5327 C.3     1  UNL1        0.0485
      9 C         140.1383  141.0628  165.0911 C.3     1  UNL1        0.0749
     10 H         138.7980  139.2077  168.8566 H       1  UNL1        0.2107
     11 C         140.7574  141.2459  168.4451 C.ar    1  UNL1        0.0019
     12 C         140.2827  142.5433  169.0292 C.ar    1  UNL1        0.0003
     13 C         141.2041  143.3634  169.8826 C.ar    1  UNL1        0.0294
     14 C         142.6005  142.8860  170.1518 C.ar    1  UNL1        0.1401
     15 F         143.5220  143.7062  171.0052 F       1  UNL1       -0.2042
     16 C         143.0752  141.5886  169.5677 C.ar    1  UNL1        0.0294
     17 C         142.1537  140.7685  168.7143 C.ar    1  UNL1        0.0003
     18 C         137.8347  140.8706  162.5869 C.3     1  UNL1        0.1473
     19 O         136.5334  141.2688  163.2179 O.3     1  UNL1       -0.3787
     20 H         136.0855  141.9179  162.6531 H       1  UNL1        0.2108
     21 C         138.2475  141.4717  161.2760 C.ar    1  UNL1        0.0086
     22 C         138.0487  140.7037  160.0030 C.ar    1  UNL1       -0.0004
     23 C         138.4615  141.3048  158.6923 C.ar    1  UNL1        0.0175
     24 C         139.0732  142.6739  158.6545 C.ar    1  UNL1        0.0848
     25 C         139.2721  143.4419  159.9275 C.ar    1  UNL1        0.1523
     26 C         138.8593  142.8408  161.2383 C.ar    1  UNL1        0.0363
     27 O         139.8839  144.8109  159.8897 O.3     1  UNL1       -0.4644
     28 C         140.2967  145.4120  158.5789 C.3     1  UNL1        0.2897
     29 C         140.0978  144.6440  157.3058 C.2     1  UNL1        0.2707
     30 O         140.5107  145.2451  155.9950 O.2     1  UNL1       -0.2707
     31 N         139.4861  143.2749  157.3436 N.am    1  UNL1       -0.2785
     32 H         139.3556  142.7709  156.5081 H       1  UNL1        0.1551
@<TRIPOS>BOND
     1     1     2    1
     2     2    18    1
     3    18    19    1
     4    18    21    1
     5    21    22   ar
     6    22    23   ar
     7    23    24   ar
     8    24    25   ar
     9    25    26   ar
    10    25    27    1
    11    27    28    1
    12    28    29    1
    13    29    30    2
    14    29    31   am
    15     2     3    1
    16     3     4    1
    17     4     5    1
    18     5     6    1
    19     6     7    1
    20     6    11    1
    21    11    12   ar
    22    12    13   ar
    23    13    14   ar
    24    14    15    1
    25    14    16   ar
    26    16    17   ar
    27     6     8    1
    28     8     9    1
    29    26    21   ar
    30     9     3    1
    31    31    24    1
    32    17    11   ar
    33    19    20    1
    34    31    32    1
    35     7    10    1
@<TRIPOS>MOLECULE
*****
 32 35 0 0 0
SMALL
GASTEIGER

@<TRIPOS>ATOM
      1 C         137.6323  140.8293  162.7038 C.3     1  UNL1        0.0203
      2 C         138.5179  139.8108  163.3585 C.3     1  UNL1        0.0888
      3 N         138.9428  139.9929  164.7855 N.3     1  UNL1       -0.2713
      4 C         138.3230  139.1561  165.8651 C.3     1  UNL1        0.0749
      5 C         138.7479  139.3382  167.2921 C.3     1  UNL1        0.0485
      6 C         139.7925  140.3570  167.6395 C.3     1  UNL1        0.1096
      7 O         139.5003  139.8079  169.0044 O.3     1  UNL1       -0.3826
      8 C         140.4123  141.1939  166.5598 C.3     1  UNL1        0.0485
      9 C         139.9874  141.0118  165.1328 C.3     1  UNL1        0.0749
     10 H         138.8220  139.1177  168.9369 H       1  UNL1        0.2107
     11 C         140.7357  141.1852  168.4609 C.ar    1  UNL1        0.0019
     12 C         142.1397  140.7122  168.6952 C.ar    1  UNL1        0.0003
     13 C         143.0829  141.5403  169.5165 C.ar    1  UNL1        0.0294
     14 C         142.6220  142.8415  170.1036 C.ar    1  UNL1        0.1401
     15 F         143.5652  143.6696  170.9250 F       1  UNL1       -0.2042
     16 C         141.2180  143.3145  169.8693 C.ar    1  UNL1        0.0294
     17 C         140.2748  142.4863  169.0479 C.ar    1  UNL1        0.0003
     18 C         138.9785  138.6103  162.5861 C.3     1  UNL1        0.1473
     19 O         138.3118  137.2830  162.7950 O.3     1  UNL1       -0.3787
     20 H         138.7271  136.6189  162.2227 H       1  UNL1        0.2108
     21 C         140.1060  138.7371  161.6049 C.ar    1  UNL1        0.0086
     22 C         141.4838  139.0832  162.0863 C.ar    1  UNL1       -0.0004
     23 C         142.6113  139.2100  161.1051 C.ar    1  UNL1        0.0175
     24 C         142.3608  138.9907  159.6425 C.ar    1  UNL1        0.0848
     25 C         140.9830  138.6446  159.1611 C.ar    1  UNL1        0.1523
     26 C         139.8556  138.5178  160.1423 C.ar    1  UNL1        0.0363
     27 O         140.7326  138.4252  157.6985 O.3     1  UNL1       -0.4644
     28 C         141.8600  138.5520  156.7173 C.3     1  UNL1        0.2897
     29 C         143.2379  138.8981  157.1986 C.2     1  UNL1        0.2707
     30 O         144.3653  139.0249  156.2174 O.2     1  UNL1       -0.2707
     31 N         143.4883  139.1175  158.6612 N.am    1  UNL1       -0.2785
     32 H         144.3927  139.3446  158.9772 H       1  UNL1        0.1551
@<TRIPOS>BOND
     1     1     2    1
     2     2    18    1
     3    18    19    1
     4    18    21    1
     5    21    22   ar
     6    22    23   ar
     7    23    24   ar
     8    24    25   ar
     9    25    26   ar
    10    25    27    1
    11    27    28    1
    12    28    29    1
    13    29    30    2
    14    29    31   am
    15     2     3    1
    16     3     4    1
    17     4     5    1
    18     5     6    1
    19     6     7    1
    20     6    11    1
    21    11    12   ar
    22    12    13   ar
    23    13    14   ar
    24    14    15    1
    25    14    16   ar
    26    16    17   ar
    27     6     8    1
    28     8     9    1
    29    26    21   ar
    30     9     3    1
    31    31    24    1
    32    17    11   ar
    33    19    20    1
    34    31    32    1
    35     7    10    1
@<TRIPOS>MOLECULE
*****
 32 35 0 0 0
SMALL
GASTEIGER

@<TRIPOS>ATOM
      1 C         139.0311  138.2185  162.7120 C.3     1  UNL1        0.0203
      2 C         138.6482  139.5180  163.3561 C.3     1  UNL1        0.0888
      3 N         139.0132  139.7822  164.7868 N.3     1  UNL1       -0.2713
      4 C         138.3407  139.0151  165.8864 C.3     1  UNL1        0.0749
      5 C         138.7058  139.2793  167.3171 C.3     1  UNL1        0.0485
      6 C         139.7434  140.3106  167.6482 C.3     1  UNL1        0.1096
      7 O         139.3884  139.8455  169.0295 O.3     1  UNL1       -0.3826
      8 C         140.4161  141.0777  166.5486 C.3     1  UNL1        0.0485
      9 C         140.0510  140.8135  165.1179 C.3     1  UNL1        0.0749
     10 H         138.7076  139.1568  168.9737 H       1  UNL1        0.2107
     11 C         140.6578  141.1804  168.4590 C.ar    1  UNL1        0.0019
     12 C         140.1542  142.4743  169.0264 C.ar    1  UNL1        0.0003
     13 C         141.0685  143.3442  169.8372 C.ar    1  UNL1        0.0294
     14 C         142.4867  142.9200  170.0806 C.ar    1  UNL1        0.1401
     15 F         143.4010  143.7898  170.8913 F       1  UNL1       -0.2042
     16 C         142.9903  141.6260  169.5132 C.ar    1  UNL1        0.0294
     17 C         142.0759  140.7562  168.7024 C.ar    1  UNL1        0.0003
     18 C         137.9001  140.5532  162.5695 C.3     1  UNL1        0.1473
     19 O         136.6647  141.1823  163.1421 O.3     1  UNL1       -0.3787
     20 H         136.3067  141.8253  162.5102 H       1  UNL1        0.2108
     21 C         138.3875  140.9593  161.2102 C.ar    1  UNL1        0.0086
     22 C         139.4587  142.0008  161.0778 C.ar    1  UNL1       -0.0004
     23 C         139.9461  142.4069  159.7186 C.ar    1  UNL1        0.0175
     24 C         139.3622  141.7713  158.4917 C.ar    1  UNL1        0.0848
     25 C         138.2910  140.7298  158.6241 C.ar    1  UNL1        0.1523
     26 C         137.8036  140.3237  159.9834 C.ar    1  UNL1        0.0363
     27 O         137.7071  140.0942  157.3973 O.3     1  UNL1       -0.4644
     28 C         138.1944  140.5003  156.0380 C.3     1  UNL1        0.2897
     29 C         139.2657  141.5419  155.9056 C.2     1  UNL1        0.2707
     30 O         139.7530  141.9479  154.5463 O.2     1  UNL1       -0.2707
     31 N         139.8496  142.1774  157.1324 N.am    1  UNL1       -0.2785
     32 H         140.5527  142.8611  157.0456 H       1  UNL1        0.1551
@<TRIPOS>BOND
     1     1     2    1
     2     2    18    1
     3    18    19    1
     4    18    21    1
     5    21    22   ar
     6    22    23   ar
     7    23    24   ar
     8    24    25   ar
     9    25    26   ar
    10    25    27    1
    11    27    28    1
    12    28    29    1
    13    29    30    2
    14    29    31   am
    15     2     3    1
    16     3     4    1
    17     4     5    1
    18     5     6    1
    19     6     7    1
    20     6    11    1
    21    11    12   ar
    22    12    13   ar
    23    13    14   ar
    24    14    15    1
    25    14    16   ar
    26    16    17   ar
    27     6     8    1
    28     8     9    1
    29    26    21   ar
    30     9     3    1
    31    31    24    1
    32    17    11   ar
    33    19    20    1
    34    31    32    1
    35     7    10    1
@<TRIPOS>MOLECULE
*****
 32 35 0 0 0
SMALL
GASTEIGER

@<TRIPOS>ATOM
      1 C         137.3369  140.8190  162.4770 C.3     1  UNL1        0.0203
      2 C         138.2170  141.8569  163.1082 C.3     1  UNL1        0.0888
      3 N         138.8257  141.6052  164.4558 N.3     1  UNL1       -0.2713
      4 C         138.5799  140.3029  165.1584 C.3     1  UNL1        0.0749
      5 C         139.1886  140.0512  166.5060 C.3     1  UNL1        0.0485
      6 C         140.0430  141.1018  167.1511 C.3     1  UNL1        0.1096
      7 O         140.1010  140.0357  168.2048 O.3     1  UNL1       -0.3826
      8 C         140.2889  142.4041  166.4485 C.3     1  UNL1        0.0485
      9 C         139.6802  142.6558  165.1009 C.3     1  UNL1        0.0749
     10 H         139.5783  139.2701  167.9193 H       1  UNL1        0.2107
     11 C         140.9177  141.7821  168.1622 C.ar    1  UNL1        0.0019
     12 C         140.3672  142.8974  169.0006 C.ar    1  UNL1        0.0003
     13 C         141.2417  143.5778  170.0116 C.ar    1  UNL1        0.0294
     14 C         142.6669  143.1428  170.1842 C.ar    1  UNL1        0.1401
     15 F         143.5415  143.8232  171.1952 F       1  UNL1       -0.2042
     16 C         143.2174  142.0276  169.3457 C.ar    1  UNL1        0.0294
     17 C         142.3428  141.3472  168.3347 C.ar    1  UNL1        0.0003
     18 C         138.4883  143.1464  162.3917 C.3     1  UNL1        0.1473
     19 O         137.5518  144.3066  162.5550 O.3     1  UNL1       -0.3787
     20 H         137.8706  145.0562  162.0283 H       1  UNL1        0.2108
     21 C         139.6963  143.2757  161.5118 C.ar    1  UNL1        0.0086
     22 C         140.0031  144.5848  160.8468 C.ar    1  UNL1       -0.0004
     23 C         141.2110  144.7141  159.9670 C.ar    1  UNL1        0.0175
     24 C         142.1122  143.5343  159.7521 C.ar    1  UNL1        0.0848
     25 C         141.8054  142.2253  160.4171 C.ar    1  UNL1        0.1523
     26 C         140.5974  142.0960  161.2969 C.ar    1  UNL1        0.0363
     27 O         142.7065  141.0455  160.2022 O.3     1  UNL1       -0.4644
     28 C         143.9144  141.1748  159.3224 C.3     1  UNL1        0.2897
     29 C         144.2213  142.4839  158.6574 C.2     1  UNL1        0.2707
     30 O         145.4292  142.6132  157.7775 O.2     1  UNL1       -0.2707
     31 N         143.3202  143.6637  158.8722 N.am    1  UNL1       -0.2785
     32 H         143.5215  144.5228  158.4358 H       1  UNL1        0.1551
@<TRIPOS>BOND
     1     1     2    1
     2     2    18    1
     3    18    19    1
     4    18    21    1
     5    21    22   ar
     6    22    23   ar
     7    23    24   ar
     8    24    25   ar
     9    25    26   ar
    10    25    27    1
    11    27    28    1
    12    28    29    1
    13    29    30    2
    14    29    31   am
    15     2     3    1
    16     3     4    1
    17     4     5    1
    18     5     6    1
    19     6     7    1
    20     6    11    1
    21    11    12   ar
    22    12    13   ar
    23    13    14   ar
    24    14    15    1
    25    14    16   ar
    26    16    17   ar
    27     6     8    1
    28     8     9    1
    29    26    21   ar
    30     9     3    1
    31    31    24    1
    32    17    11   ar
    33    19    20    1
    34    31    32    1
    35     7    10    1
@<TRIPOS>MOLECULE
*****
 32 35 0 0 0
SMALL
GASTEIGER

@<TRIPOS>ATOM
      1 C         138.6664  137.5613  163.8229 C.3     1  UNL1        0.0203
      2 C         139.2771  138.9275  163.7198 C.3     1  UNL1        0.0888
      3 N         140.5407  139.1270  162.9366 N.3     1  UNL1       -0.2713
      4 C         141.7769  138.3587  163.2991 C.3     1  UNL1        0.0749
      5 C         143.0406  138.5582  162.5159 C.3     1  UNL1        0.0485
      6 C         143.0680  139.5260  161.3702 C.3     1  UNL1        0.1096
      7 O         144.4846  139.0345  161.3299 O.3     1  UNL1       -0.3826
      8 C         141.8317  140.2943  161.0076 C.3     1  UNL1        0.0485
      9 C         140.5680  140.0948  161.7908 C.3     1  UNL1        0.0749
     10 H         144.6208  138.3823  162.0349 H       1  UNL1        0.2107
     11 C         143.5873  140.3231  160.2104 C.ar    1  UNL1        0.0019
     12 C         143.5879  139.7297  158.8328 C.ar    1  UNL1        0.0003
     13 C         144.1072  140.5267  157.6731 C.ar    1  UNL1        0.0294
     14 C         144.6261  141.9173  157.8910 C.ar    1  UNL1        0.1401
     15 F         145.1455  142.7143  156.7313 F       1  UNL1       -0.2042
     16 C         144.6256  142.5106  159.2687 C.ar    1  UNL1        0.0294
     17 C         144.1062  141.7135  160.4284 C.ar    1  UNL1        0.0003
     18 C         138.6241  140.0942  164.3999 C.3     1  UNL1        0.1473
     19 O         137.3686  140.6869  163.8320 O.3     1  UNL1       -0.3787
     20 H         137.0803  141.4273  164.3883 H       1  UNL1        0.2108
     21 C         139.2267  140.6682  165.6479 C.ar    1  UNL1        0.0086
     22 C         139.8636  142.0258  165.6174 C.ar    1  UNL1       -0.0004
     23 C         140.4661  142.5998  166.8654 C.ar    1  UNL1        0.0175
     24 C         140.4316  141.8161  168.1439 C.ar    1  UNL1        0.0848
     25 C         139.7947  140.4584  168.1745 C.ar    1  UNL1        0.1523
     26 C         139.1922  139.8845  166.9265 C.ar    1  UNL1        0.0363
     27 O         139.7602  139.6747  169.4530 O.3     1  UNL1       -0.4644
     28 C         140.3627  140.2487  170.7010 C.3     1  UNL1        0.2897
     29 C         140.9997  141.6064  170.6705 C.2     1  UNL1        0.2707
     30 O         141.6022  142.1803  171.9185 O.2     1  UNL1       -0.2707
     31 N         141.0342  142.3901  169.3920 N.am    1  UNL1       -0.2785
     32 H         141.4523  143.2812  169.3719 H       1  UNL1        0.1551
@<TRIPOS>BOND
     1     1     2    1
     2     2    18    1
     3    18    19    1
     4    18    21    1
     5    21    22   ar
     6    22    23   ar
     7    23    24   ar
     8    24    25   ar
     9    25    26   ar
    10    25    27    1
    11    27    28    1
    12    28    29    1
    13    29    30    2
    14    29    31   am
    15     2     3    1
    16     3     4    1
    17     4     5    1
    18     5     6    1
    19     6     7    1
    20     6    11    1
    21    11    12   ar
    22    12    13   ar
    23    13    14   ar
    24    14    15    1
    25    14    16   ar
    26    16    17   ar
    27     6     8    1
    28     8     9    1
    29    26    21   ar
    30     9     3    1
    31    31    24    1
    32    17    11   ar
    33    19    20    1
    34    31    32    1
    35     7    10    1
