@<TRIPOS>MOLECULE
*****
 38 40 0 0 0
SMALL
GASTEIGER

@<TRIPOS>ATOM
      1 C         139.0028  142.5896  161.7800 C.2     1  UNL1        0.2485
      2 O         137.9945  143.6998  161.7576 O.2     1  UNL1       -0.2726
      3 N         139.9983  142.4580  160.6656 N.am    1  UNL1       -0.2823
      4 H         140.6601  141.7293  160.6803 H       1  UNL1        0.1549
      5 C         140.2195  141.8596  167.2227 C.ar    1  UNL1        0.1054
      6 C         140.3766  143.1182  166.4221 C.ar    1  UNL1        0.0181
      7 C         140.0002  143.1355  164.9702 C.ar    1  UNL1       -0.0011
      8 C         139.4668  141.8941  164.3188 C.ar    1  UNL1        0.0022
      9 C         139.3097  140.6354  165.1194 C.ar    1  UNL1       -0.0030
     10 C         139.6861  140.6181  166.5713 C.ar    1  UNL1        0.0155
     11 C         138.7616  139.5742  164.2120 C.3     1  UNL1        0.1206
     12 N         138.5799  140.1771  162.8505 N.am    1  UNL1       -0.2655
     13 C         138.0546  139.4703  161.6362 C.2     1  UNL1        0.2269
     14 C         137.6559  138.0268  161.7224 C.3     1  UNL1        0.0949
     15 O         137.9280  140.2070  160.3357 O.2     1  UNL1       -0.2748
     16 C         139.0158  141.6109  162.9166 C.3     1  UNL1        0.1750
     17 S         140.5959  141.8423  168.6746 S.O2    1  UNL1        0.0086
     18 O         140.4082  143.3290  168.7409 O.2     1  UNL1       -0.1686
     19 O         140.7836  140.3556  168.6082 O.2     1  UNL1       -0.1686
     20 C         142.2388  142.4879  170.5809 C.3     1  UNL1        0.0276
     21 C         140.9723  141.8250  170.1265 C.3     1  UNL1        0.1560
     22 C         139.9854  143.4368  159.5290 C.ar    1  UNL1        0.0503
     23 C         140.6858  144.7560  159.6672 C.ar    1  UNL1        0.0144
     24 C         140.6729  145.7347  158.5306 C.ar    1  UNL1       -0.0002
     25 C         139.9596  145.3943  157.2557 C.ar    1  UNL1        0.0182
     26 C         139.2592  144.0751  157.1175 C.ar    1  UNL1       -0.0002
     27 C         139.2721  143.0963  158.2542 C.ar    1  UNL1        0.0144
     28 C         139.9467  146.3730  156.1191 C.3     1  UNL1        0.2827
     29 O         139.3182  147.4015  157.0119 O.3     1  UNL1       -0.3692
     30 H         139.1906  147.0265  157.8973 H       1  UNL1        0.2112
     31 C         139.9338  147.3517  154.9825 C.3     1  UNL1        0.4311
     32 F         139.9209  148.3304  153.8458 F       1  UNL1       -0.1669
     33 F         138.4342  147.3176  154.9701 F       1  UNL1       -0.1669
     34 F         140.8118  147.4421  154.9079 F       1  UNL1       -0.1669
     35 C         140.5752  145.3444  155.2263 C.3     1  UNL1        0.4311
     36 F         141.2036  144.3159  154.3335 F       1  UNL1       -0.1669
     37 F         139.8606  145.1822  154.7287 F       1  UNL1       -0.1669
     38 F         141.9851  145.2415  155.7276 F       1  UNL1       -0.1669
@<TRIPOS>BOND
     1    20    21    1
     2    21    17    1
     3    17    18    2
     4    17    19    2
     5    17     5    1
     6     5     6   ar
     7     6     7   ar
     8     7     8   ar
     9     8     9   ar
    10     9    10   ar
    11     9    11    1
    12    11    12    1
    13    12    13   am
    14    13    14    1
    15    13    15    2
    16    12    16    1
    17    16     1    1
    18     1     2    2
    19     1     3   am
    20     3    22    1
    21    22    23   ar
    22    23    24   ar
    23    24    25   ar
    24    25    28    1
    25    28    29    1
    26    28    31    1
    27    31    32    1
    28    31    33    1
    29    31    34    1
    30    28    35    1
    31    35    36    1
    32    35    37    1
    33    35    38    1
    34    25    26   ar
    35    26    27   ar
    36    10     5   ar
    37    27    22   ar
    38    16     8    1
    39     3     4    1
    40    29    30    1
@<TRIPOS>MOLECULE
*****
 38 40 0 0 0
SMALL
GASTEIGER

@<TRIPOS>ATOM
      1 C         141.4257  139.5142  159.0966 C.2     1  UNL1        0.2485
      2 O         140.9048  140.8285  159.5977 O.2     1  UNL1       -0.2726
      3 N         141.2990  138.2843  159.9460 N.am    1  UNL1       -0.2823
      4 H         141.6409  137.4216  159.6171 H       1  UNL1        0.1549
      5 C         145.7677  141.2127  155.9504 C.ar    1  UNL1        0.1054
      6 C         145.4902  141.5748  157.3793 C.ar    1  UNL1        0.0181
      7 C         144.2763  141.0274  158.0697 C.ar    1  UNL1       -0.0011
      8 C         143.3397  140.1178  157.3311 C.ar    1  UNL1        0.0022
      9 C         143.6172  139.7556  155.9022 C.ar    1  UNL1       -0.0030
     10 C         144.8311  140.3030  155.2119 C.ar    1  UNL1        0.0155
     11 C         142.5220  138.8436  155.4342 C.3     1  UNL1        0.1206
     12 N         141.5678  138.6422  156.5738 N.am    1  UNL1       -0.2655
     13 C         140.3262  137.8009  156.5460 C.2     1  UNL1        0.2269
     14 C         139.9456  137.0666  155.2946 C.3     1  UNL1        0.0949
     15 O         139.4652  137.6940  157.7696 O.2     1  UNL1       -0.2748
     16 C         142.0732  139.4297  157.7462 C.3     1  UNL1        0.1750
     17 S         146.9816  141.7601  155.2600 S.O2    1  UNL1        0.0086
     18 O         146.5505  141.1041  153.9818 O.2     1  UNL1       -0.1686
     19 O         147.4127  142.4161  156.5382 O.2     1  UNL1       -0.1686
     20 C         149.5417  141.6960  154.8223 C.3     1  UNL1        0.0276
     21 C         148.1956  142.3075  154.5697 C.3     1  UNL1        0.1560
     22 C         140.6515  138.3688  161.2963 C.ar    1  UNL1        0.0503
     23 C         139.1714  138.5859  161.4061 C.ar    1  UNL1        0.0144
     24 C         138.5238  138.6705  162.7565 C.ar    1  UNL1       -0.0002
     25 C         139.3564  138.5379  163.9972 C.ar    1  UNL1        0.0182
     26 C         140.8365  138.3208  163.8874 C.ar    1  UNL1       -0.0002
     27 C         141.4840  138.2363  162.5370 C.ar    1  UNL1        0.0144
     28 C         138.7089  138.6225  165.3476 C.3     1  UNL1        0.2827
     29 O         138.9496  137.1565  165.5548 O.3     1  UNL1       -0.3692
     30 H         139.3963  136.7889  164.7761 H       1  UNL1        0.2112
     31 C         138.0614  138.7070  166.6979 C.3     1  UNL1        0.4311
     32 F         137.4139  138.7915  168.0483 F       1  UNL1       -0.1669
     33 F         139.2440  139.4696  167.2173 F       1  UNL1       -0.1669
     34 F         137.3216  138.2661  166.4907 F       1  UNL1       -0.1669
     35 C         138.4681  140.0884  165.1403 C.3     1  UNL1        0.4311
     36 F         138.2274  141.5544  164.9331 F       1  UNL1       -0.1669
     37 F         137.5832  140.0520  165.1290 F       1  UNL1       -0.1669
     38 F         139.8462  140.6782  165.0842 F       1  UNL1       -0.1669
@<TRIPOS>BOND
     1    20    21    1
     2    21    17    1
     3    17    18    2
     4    17    19    2
     5    17     5    1
     6     5     6   ar
     7     6     7   ar
     8     7     8   ar
     9     8     9   ar
    10     9    10   ar
    11     9    11    1
    12    11    12    1
    13    12    13   am
    14    13    14    1
    15    13    15    2
    16    12    16    1
    17    16     1    1
    18     1     2    2
    19     1     3   am
    20     3    22    1
    21    22    23   ar
    22    23    24   ar
    23    24    25   ar
    24    25    28    1
    25    28    29    1
    26    28    31    1
    27    31    32    1
    28    31    33    1
    29    31    34    1
    30    28    35    1
    31    35    36    1
    32    35    37    1
    33    35    38    1
    34    25    26   ar
    35    26    27   ar
    36    10     5   ar
    37    27    22   ar
    38    16     8    1
    39     3     4    1
    40    29    30    1
@<TRIPOS>MOLECULE
*****
 38 40 0 0 0
SMALL
GASTEIGER

@<TRIPOS>ATOM
      1 C         143.1594  141.3494  158.9563 C.2     1  UNL1        0.2485
      2 O         143.8571  141.2749  160.2820 O.2     1  UNL1       -0.2726
      3 N         141.8057  141.9879  158.8562 N.am    1  UNL1       -0.2823
      4 H         141.3477  142.0368  157.9861 H       1  UNL1        0.1549
      5 C         147.5126  141.8199  155.4258 C.ar    1  UNL1        0.1054
      6 C         147.2252  142.6732  156.6255 C.ar    1  UNL1        0.0181
      7 C         146.0095  142.4055  157.4624 C.ar    1  UNL1       -0.0011
      8 C         145.0812  141.2845  157.0997 C.ar    1  UNL1        0.0022
      9 C         145.3686  140.4312  155.9000 C.ar    1  UNL1       -0.0030
     10 C         146.5843  140.6989  155.0631 C.ar    1  UNL1        0.0155
     11 C         144.2802  139.4049  155.7896 C.3     1  UNL1        0.1206
     12 N         143.3201  139.6240  156.9211 N.am    1  UNL1       -0.2655
     13 C         142.0822  138.8222  157.1949 C.2     1  UNL1        0.2269
     14 C         141.7122  137.6823  156.2928 C.3     1  UNL1        0.0949
     15 O         141.2145  139.1603  158.3707 O.2     1  UNL1       -0.2748
     16 C         143.8152  140.7856  157.7308 C.3     1  UNL1        0.1750
     17 S         148.7283  142.0876  154.5889 S.O2    1  UNL1        0.0086
     18 O         147.8660  142.7257  153.5405 O.2     1  UNL1       -0.1686
     19 O         149.5906  141.4494  155.6373 O.2     1  UNL1       -0.1686
     20 C         151.3089  142.2944  154.3710 C.3     1  UNL1        0.0276
     21 C         149.9440  142.3552  153.7520 C.3     1  UNL1        0.1560
     22 C         141.1499  142.5517  160.0817 C.ar    1  UNL1        0.0503
     23 C         141.0575  144.0373  160.2668 C.ar    1  UNL1        0.0144
     24 C         140.4016  144.6012  161.4923 C.ar    1  UNL1       -0.0002
     25 C         139.8382  143.6794  162.5329 C.ar    1  UNL1        0.0182
     26 C         139.9306  142.1937  162.3479 C.ar    1  UNL1       -0.0002
     27 C         140.5865  141.6299  161.1223 C.ar    1  UNL1        0.0144
     28 C         139.1824  144.2432  163.7584 C.3     1  UNL1        0.2827
     29 O         138.0376  144.7314  162.9212 O.3     1  UNL1       -0.3692
     30 H         138.1906  144.4929  161.9935 H       1  UNL1        0.2112
     31 C         138.5266  144.8070  164.9840 C.3     1  UNL1        0.4311
     32 F         137.8707  145.3708  166.2096 F       1  UNL1       -0.1669
     33 F         137.3602  143.8853  164.7838 F       1  UNL1       -0.1669
     34 F         139.1630  145.3878  165.1895 F       1  UNL1       -0.1669
     35 C         140.3272  143.7549  164.5957 C.3     1  UNL1        0.4311
     36 F         141.4720  143.2667  165.4329 F       1  UNL1       -0.1669
     37 F         139.8947  143.0927  164.9944 F       1  UNL1       -0.1669
     38 F         141.4567  144.6750  164.2381 F       1  UNL1       -0.1669
@<TRIPOS>BOND
     1    20    21    1
     2    21    17    1
     3    17    18    2
     4    17    19    2
     5    17     5    1
     6     5     6   ar
     7     6     7   ar
     8     7     8   ar
     9     8     9   ar
    10     9    10   ar
    11     9    11    1
    12    11    12    1
    13    12    13   am
    14    13    14    1
    15    13    15    2
    16    12    16    1
    17    16     1    1
    18     1     2    2
    19     1     3   am
    20     3    22    1
    21    22    23   ar
    22    23    24   ar
    23    24    25   ar
    24    25    28    1
    25    28    29    1
    26    28    31    1
    27    31    32    1
    28    31    33    1
    29    31    34    1
    30    28    35    1
    31    35    36    1
    32    35    37    1
    33    35    38    1
    34    25    26   ar
    35    26    27   ar
    36    10     5   ar
    37    27    22   ar
    38    16     8    1
    39     3     4    1
    40    29    30    1
@<TRIPOS>MOLECULE
*****
 38 40 0 0 0
SMALL
GASTEIGER

@<TRIPOS>ATOM
      1 C         142.5341  138.0081  158.2076 C.2     1  UNL1        0.2485
      2 O         143.6972  138.9066  157.9081 O.2     1  UNL1       -0.2726
      3 N         141.8872  138.0445  159.5605 N.am    1  UNL1       -0.2823
      4 H         141.1238  137.4547  159.7572 H       1  UNL1        0.1549
      5 C         143.2627  133.0209  155.7108 C.ar    1  UNL1        0.1054
      6 C         144.0869  133.6062  156.8191 C.ar    1  UNL1        0.0181
      7 C         143.7490  134.9594  157.3709 C.ar    1  UNL1       -0.0011
      8 C         142.5869  135.7274  156.8145 C.ar    1  UNL1        0.0022
      9 C         141.7627  135.1422  155.7062 C.ar    1  UNL1       -0.0030
     10 C         142.1007  133.7890  155.1544 C.ar    1  UNL1        0.0155
     11 C         140.6843  136.1262  155.3612 C.3     1  UNL1        0.1206
     12 N         140.8420  137.3195  156.2562 N.am    1  UNL1       -0.2655
     13 C         139.9760  138.5443  156.2536 C.2     1  UNL1        0.2269
     14 C         138.8292  138.6498  155.2925 C.3     1  UNL1        0.0949
     15 O         140.2567  139.6634  157.2121 O.2     1  UNL1       -0.2748
     16 C         142.0179  137.0730  157.1544 C.3     1  UNL1        0.1750
     17 S         143.6007  131.6677  155.1590 S.O2    1  UNL1        0.0086
     18 O         142.2123  131.5472  154.6042 O.2     1  UNL1       -0.1686
     19 O         144.9891  131.7882  155.7138 O.2     1  UNL1       -0.1686
     20 C         144.8988  129.4244  155.3391 C.3     1  UNL1        0.0276
     21 C         143.9386  130.3145  154.6072 C.3     1  UNL1        0.1560
     22 C         142.4034  138.9795  160.6137 C.ar    1  UNL1        0.0503
     23 C         141.7363  140.3052  160.8320 C.ar    1  UNL1        0.0144
     24 C         142.2525  141.2402  161.8852 C.ar    1  UNL1       -0.0002
     25 C         143.4358  140.8496  162.7202 C.ar    1  UNL1        0.0182
     26 C         144.1029  139.5240  162.5019 C.ar    1  UNL1       -0.0002
     27 C         143.5867  138.5890  161.4487 C.ar    1  UNL1        0.0144
     28 C         143.9520  141.7846  163.7734 C.3     1  UNL1        0.2827
     29 O         143.5209  140.8217  164.8396 O.3     1  UNL1       -0.3692
     30 H         143.1132  140.0441  164.4273 H       1  UNL1        0.2112
     31 C         144.4683  142.7196  164.8266 C.3     1  UNL1        0.4311
     32 F         144.9845  143.6547  165.8798 F       1  UNL1       -0.1669
     33 F         143.0622  142.9982  165.2684 F       1  UNL1       -0.1669
     34 F         145.3295  142.6236  164.6434 F       1  UNL1       -0.1669
     35 C         144.3832  142.7476  162.7072 C.3     1  UNL1        0.4311
     36 F         144.8144  143.7105  161.6410 F       1  UNL1       -0.1669
     37 F         143.7575  143.3573  162.8529 F       1  UNL1       -0.1669
     38 F         145.5748  142.0860  162.0809 F       1  UNL1       -0.1669
@<TRIPOS>BOND
     1    20    21    1
     2    21    17    1
     3    17    18    2
     4    17    19    2
     5    17     5    1
     6     5     6   ar
     7     6     7   ar
     8     7     8   ar
     9     8     9   ar
    10     9    10   ar
    11     9    11    1
    12    11    12    1
    13    12    13   am
    14    13    14    1
    15    13    15    2
    16    12    16    1
    17    16     1    1
    18     1     2    2
    19     1     3   am
    20     3    22    1
    21    22    23   ar
    22    23    24   ar
    23    24    25   ar
    24    25    28    1
    25    28    29    1
    26    28    31    1
    27    31    32    1
    28    31    33    1
    29    31    34    1
    30    28    35    1
    31    35    36    1
    32    35    37    1
    33    35    38    1
    34    25    26   ar
    35    26    27   ar
    36    10     5   ar
    37    27    22   ar
    38    16     8    1
    39     3     4    1
    40    29    30    1
@<TRIPOS>MOLECULE
*****
 38 40 0 0 0
SMALL
GASTEIGER

@<TRIPOS>ATOM
      1 C         141.6474  139.0827  158.6305 C.2     1  UNL1        0.2485
      2 O         142.3391  138.1043  159.5329 O.2     1  UNL1       -0.2726
      3 N         140.4868  139.8836  159.1419 N.am    1  UNL1       -0.2823
      4 H         140.0328  140.5258  158.5497 H       1  UNL1        0.1549
      5 C         145.6756  141.2285  155.3433 C.ar    1  UNL1        0.1054
      6 C         145.6019  141.2901  156.8402 C.ar    1  UNL1        0.0181
      7 C         144.4474  140.6595  157.5609 C.ar    1  UNL1       -0.0011
      8 C         143.3665  139.9674  156.7847 C.ar    1  UNL1        0.0022
      9 C         143.4401  139.9059  155.2878 C.ar    1  UNL1       -0.0030
     10 C         144.5946  140.5364  154.5671 C.ar    1  UNL1        0.0155
     11 C         142.2353  139.1605  154.7947 C.3     1  UNL1        0.1206
     12 N         141.4172  138.7615  155.9868 N.am    1  UNL1       -0.2655
     13 C         140.1264  137.9978  155.9548 C.2     1  UNL1        0.2269
     14 C         139.5449  137.5627  154.6424 C.3     1  UNL1        0.0949
     15 O         139.4174  137.6692  157.2351 O.2     1  UNL1       -0.2748
     16 C         142.1162  139.2601  157.2168 C.3     1  UNL1        0.1750
     17 S         146.8301  141.8591  154.6227 S.O2    1  UNL1        0.0086
     18 O         147.2625  142.5231  155.8963 O.2     1  UNL1       -0.1686
     19 O         146.3977  141.1952  153.3490 O.2     1  UNL1       -0.1686
     20 C         147.7931  143.7819  153.1648 C.3     1  UNL1        0.0276
     21 C         147.9847  142.4897  153.9020 C.3     1  UNL1        0.1560
     22 C         140.0180  139.7062  160.5557 C.ar    1  UNL1        0.0503
     23 C         140.8013  140.3046  161.6863 C.ar    1  UNL1        0.0144
     24 C         140.3324  140.1272  163.1001 C.ar    1  UNL1       -0.0002
     25 C         139.0804  139.3513  163.3833 C.ar    1  UNL1        0.0182
     26 C         138.2971  138.7528  162.2526 C.ar    1  UNL1       -0.0002
     27 C         138.7659  138.9303  160.8389 C.ar    1  UNL1        0.0144
     28 C         138.6116  139.1738  164.7970 C.3     1  UNL1        0.2827
     29 O         137.7015  140.3563  164.6437 O.3     1  UNL1       -0.3692
     30 H         137.7912  140.7194  163.7486 H       1  UNL1        0.2112
     31 C         138.1427  138.9964  166.2108 C.3     1  UNL1        0.4311
     32 F         137.6739  138.8189  167.6245 F       1  UNL1       -0.1669
     33 F         138.8082  140.2851  166.5932 F       1  UNL1       -0.1669
     34 F         137.7189  138.2283  166.0883 F       1  UNL1       -0.1669
     35 C         139.5216  137.9913  164.9504 C.3     1  UNL1        0.4311
     36 F         140.4316  136.8088  165.1037 F       1  UNL1       -0.1669
     37 F         139.0274  137.4149  164.4943 F       1  UNL1       -0.1669
     38 F         140.6684  138.5186  165.7608 F       1  UNL1       -0.1669
@<TRIPOS>BOND
     1    20    21    1
     2    21    17    1
     3    17    18    2
     4    17    19    2
     5    17     5    1
     6     5     6   ar
     7     6     7   ar
     8     7     8   ar
     9     8     9   ar
    10     9    10   ar
    11     9    11    1
    12    11    12    1
    13    12    13   am
    14    13    14    1
    15    13    15    2
    16    12    16    1
    17    16     1    1
    18     1     2    2
    19     1     3   am
    20     3    22    1
    21    22    23   ar
    22    23    24   ar
    23    24    25   ar
    24    25    28    1
    25    28    29    1
    26    28    31    1
    27    31    32    1
    28    31    33    1
    29    31    34    1
    30    28    35    1
    31    35    36    1
    32    35    37    1
    33    35    38    1
    34    25    26   ar
    35    26    27   ar
    36    10     5   ar
    37    27    22   ar
    38    16     8    1
    39     3     4    1
    40    29    30    1
@<TRIPOS>MOLECULE
*****
 38 40 0 0 0
SMALL
GASTEIGER

@<TRIPOS>ATOM
      1 C         141.9831  142.5939  161.9544 C.2     1  UNL1        0.2485
      2 O         143.0275  143.4976  162.5395 O.2     1  UNL1       -0.2726
      3 N         141.1131  141.7702  162.8570 N.am    1  UNL1       -0.2823
      4 H         140.4276  141.1771  162.4730 H       1  UNL1        0.1549
      5 C         140.2636  145.3436  157.3589 C.ar    1  UNL1        0.1054
      6 C         140.2593  145.8507  158.7705 C.ar    1  UNL1        0.0181
      7 C         140.7576  144.9767  159.8830 C.ar    1  UNL1       -0.0011
      8 C         141.2603  143.5955  159.5839 C.ar    1  UNL1        0.0022
      9 C         141.2646  143.0883  158.1723 C.ar    1  UNL1       -0.0030
     10 C         140.7662  143.9623  157.0598 C.ar    1  UNL1        0.0155
     11 C         141.8156  141.6931  158.1827 C.3     1  UNL1        0.1206
     12 N         142.1518  141.3381  159.6007 N.am    1  UNL1       -0.2655
     13 C         142.7298  140.0360  160.0704 C.2     1  UNL1        0.2269
     14 C         143.0225  138.9457  159.0827 C.3     1  UNL1        0.0949
     15 O         143.0150  139.8243  161.5277 O.2     1  UNL1       -0.2748
     16 C         141.8086  142.5139  160.4667 C.3     1  UNL1        0.1750
     17 S         139.7652  146.2176  156.2463 S.O2    1  UNL1        0.0086
     18 O         140.2804  145.2312  155.2406 O.2     1  UNL1       -0.1686
     19 O         139.2500  147.2040  157.2521 O.2     1  UNL1       -0.1686
     20 C         140.2390  147.7133  154.1755 C.3     1  UNL1        0.0276
     21 C         139.2668  147.0916  155.1338 C.3     1  UNL1        0.1560
     22 C         141.2876  141.8502  164.3446 C.ar    1  UNL1        0.0503
     23 C         140.3642  142.7029  165.1633 C.ar    1  UNL1        0.0144
     24 C         140.5387  142.7830  166.6509 C.ar    1  UNL1       -0.0002
     25 C         141.6365  142.0104  167.3200 C.ar    1  UNL1        0.0182
     26 C         142.5600  141.1577  166.5013 C.ar    1  UNL1       -0.0002
     27 C         142.3855  141.0776  165.0137 C.ar    1  UNL1        0.0144
     28 C         141.8110  142.0904  168.8077 C.3     1  UNL1        0.2827
     29 O         143.1647  142.7073  168.6157 O.3     1  UNL1       -0.3692
     30 H         143.3501  142.7915  167.6673 H       1  UNL1        0.2112
     31 C         141.9855  142.1704  170.2953 C.3     1  UNL1        0.4311
     32 F         142.1600  142.2505  171.7830 F       1  UNL1       -0.1669
     33 F         142.0140  143.6678  170.2114 F       1  UNL1       -0.1669
     34 F         141.9814  141.2986  170.4516 F       1  UNL1       -0.1669
     35 C         140.4573  141.4735  168.9996 C.3     1  UNL1        0.4311
     36 F         139.1036  140.8565  169.1916 F       1  UNL1       -0.1669
     37 F         140.0468  142.2023  169.2910 F       1  UNL1       -0.1669
     38 F         140.6480  140.0441  168.5867 F       1  UNL1       -0.1669
@<TRIPOS>BOND
     1    20    21    1
     2    21    17    1
     3    17    18    2
     4    17    19    2
     5    17     5    1
     6     5     6   ar
     7     6     7   ar
     8     7     8   ar
     9     8     9   ar
    10     9    10   ar
    11     9    11    1
    12    11    12    1
    13    12    13   am
    14    13    14    1
    15    13    15    2
    16    12    16    1
    17    16     1    1
    18     1     2    2
    19     1     3   am
    20     3    22    1
    21    22    23   ar
    22    23    24   ar
    23    24    25   ar
    24    25    28    1
    25    28    29    1
    26    28    31    1
    27    31    32    1
    28    31    33    1
    29    31    34    1
    30    28    35    1
    31    35    36    1
    32    35    37    1
    33    35    38    1
    34    25    26   ar
    35    26    27   ar
    36    10     5   ar
    37    27    22   ar
    38    16     8    1
    39     3     4    1
    40    29    30    1
@<TRIPOS>MOLECULE
*****
 38 40 0 0 0
SMALL
GASTEIGER

@<TRIPOS>ATOM
      1 C         142.5342  138.0538  157.3776 C.2     1  UNL1        0.2485
      2 O         141.4339  138.1346  158.3938 O.2     1  UNL1       -0.2726
      3 N         143.6755  139.0259  157.4290 N.am    1  UNL1       -0.2823
      4 H         144.3977  138.9730  156.7621 H       1  UNL1        0.1549
      5 C         143.6056  132.6655  156.1718 C.ar    1  UNL1        0.1054
      6 C         143.8166  133.3571  157.4860 C.ar    1  UNL1        0.0181
      7 C         143.4740  134.8101  157.6324 C.ar    1  UNL1       -0.0011
      8 C         142.9203  135.5714  156.4647 C.ar    1  UNL1        0.0022
      9 C         142.7092  134.8798  155.1505 C.ar    1  UNL1       -0.0030
     10 C         143.0519  133.4268  155.0041 C.ar    1  UNL1        0.0155
     11 C         142.1518  135.8820  154.1835 C.3     1  UNL1        0.1206
     12 N         142.0184  137.1930  154.9001 N.am    1  UNL1       -0.2655
     13 C         141.5009  138.4715  154.3104 C.2     1  UNL1        0.2269
     14 C         141.0594  138.5118  152.8774 C.3     1  UNL1        0.0949
     15 O         141.4250  139.7096  155.1537 O.2     1  UNL1       -0.2748
     16 C         142.4934  137.0010  156.3099 C.3     1  UNL1        0.1750
     17 S         143.9482  131.2125  156.0254 S.O2    1  UNL1        0.0086
     18 O         142.4885  130.8764  155.9451 O.2     1  UNL1       -0.1686
     19 O         145.4078  131.5486  156.1057 O.2     1  UNL1       -0.1686
     20 C         144.1978  128.8439  157.0635 C.3     1  UNL1        0.0276
     21 C         144.2908  129.7595  155.8790 C.3     1  UNL1        0.1560
     22 C         143.7163  140.0788  158.4967 C.ar    1  UNL1        0.0503
     23 C         143.5855  139.6894  159.9394 C.ar    1  UNL1        0.0144
     24 C         143.6264  140.7422  161.0070 C.ar    1  UNL1       -0.0002
     25 C         143.7980  142.1844  160.6321 C.ar    1  UNL1        0.0182
     26 C         143.9288  142.5737  159.1894 C.ar    1  UNL1       -0.0002
     27 C         143.8879  141.5209  158.1218 C.ar    1  UNL1        0.0144
     28 C         143.8388  143.2372  161.6998 C.3     1  UNL1        0.2827
     29 O         142.7591  143.9990  160.9899 O.3     1  UNL1       -0.3692
     30 H         142.5015  143.5213  160.1859 H       1  UNL1        0.2112
     31 C         143.8797  144.2900  162.7674 C.3     1  UNL1        0.4311
     32 F         143.9205  145.3428  163.8351 F       1  UNL1       -0.1669
     33 F         142.5189  143.8676  163.2361 F       1  UNL1       -0.1669
     34 F         144.6802  144.6134  162.5696 F       1  UNL1       -0.1669
     35 C         144.9185  142.4754  162.4096 C.3     1  UNL1        0.4311
     36 F         145.9982  141.7136  163.1195 F       1  UNL1       -0.1669
     37 F         145.5355  142.5488  161.7783 F       1  UNL1       -0.1669
     38 F         144.2872  142.0788  163.7112 F       1  UNL1       -0.1669
@<TRIPOS>BOND
     1    20    21    1
     2    21    17    1
     3    17    18    2
     4    17    19    2
     5    17     5    1
     6     5     6   ar
     7     6     7   ar
     8     7     8   ar
     9     8     9   ar
    10     9    10   ar
    11     9    11    1
    12    11    12    1
    13    12    13   am
    14    13    14    1
    15    13    15    2
    16    12    16    1
    17    16     1    1
    18     1     2    2
    19     1     3   am
    20     3    22    1
    21    22    23   ar
    22    23    24   ar
    23    24    25   ar
    24    25    28    1
    25    28    29    1
    26    28    31    1
    27    31    32    1
    28    31    33    1
    29    31    34    1
    30    28    35    1
    31    35    36    1
    32    35    37    1
    33    35    38    1
    34    25    26   ar
    35    26    27   ar
    36    10     5   ar
    37    27    22   ar
    38    16     8    1
    39     3     4    1
    40    29    30    1
@<TRIPOS>MOLECULE
*****
 38 40 0 0 0
SMALL
GASTEIGER

@<TRIPOS>ATOM
      1 C         141.1744  141.2140  162.1095 C.2     1  UNL1        0.2485
      2 O         140.0363  140.4299  162.6924 O.2     1  UNL1       -0.2726
      3 N         142.1279  141.9370  163.0140 N.am    1  UNL1       -0.2823
      4 H         142.8750  142.4516  162.6314 H       1  UNL1        0.1549
      5 C         142.6537  138.3124  157.5237 C.ar    1  UNL1        0.1054
      6 C         142.6092  137.8098  158.9363 C.ar    1  UNL1        0.0181
      7 C         142.1879  138.7271  160.0458 C.ar    1  UNL1       -0.0011
      8 C         141.8111  140.1470  159.7428 C.ar    1  UNL1        0.0022
      9 C         141.8556  140.6496  158.3303 C.ar    1  UNL1       -0.0030
     10 C         142.2769  139.7323  157.2207 C.ar    1  UNL1        0.0155
     11 C         141.4311  142.0883  158.3366 C.3     1  UNL1        0.1206
     12 N         141.1243  142.4748  159.7530 N.am    1  UNL1       -0.2655
     13 C         140.6635  143.8243  160.2187 C.2     1  UNL1        0.2269
     14 C         140.4717  144.9343  159.2282 C.3     1  UNL1        0.0949
     15 O         140.3946  144.0637  161.6748 O.2     1  UNL1       -0.2748
     16 C         141.3591  141.2750  160.6221 C.3     1  UNL1        0.1750
     17 S         143.0750  137.3951  156.4142 S.O2    1  UNL1        0.0086
     18 O         141.8627  136.5454  156.6564 O.2     1  UNL1       -0.1686
     19 O         144.2872  138.2447  156.1721 O.2     1  UNL1       -0.1686
     20 C         143.7954  135.0370  155.5955 C.3     1  UNL1        0.0276
     21 C         143.4962  136.4778  155.3047 C.3     1  UNL1        0.1560
     22 C         141.9432  141.8759  164.5013 C.ar    1  UNL1        0.0503
     23 C         142.7218  140.8840  165.3136 C.ar    1  UNL1        0.0144
     24 C         142.5371  140.8229  166.8010 C.ar    1  UNL1       -0.0002
     25 C         141.5739  141.7538  167.4760 C.ar    1  UNL1        0.0182
     26 C         140.7954  142.7457  166.6636 C.ar    1  UNL1       -0.0002
     27 C         140.9801  142.8068  165.1763 C.ar    1  UNL1        0.0144
     28 C         141.3892  141.6927  168.9633 C.3     1  UNL1        0.2827
     29 O         139.9599  141.2814  168.7689 O.3     1  UNL1       -0.3692
     30 H         139.7644  141.2300  167.8202 H       1  UNL1        0.2112
     31 C         141.2045  141.6317  170.4507 C.3     1  UNL1        0.4311
     32 F         141.0198  141.5706  171.9380 F       1  UNL1       -0.1669
     33 F         140.9821  140.1509  170.3622 F       1  UNL1       -0.1669
     34 F         141.3216  142.4952  170.6095 F       1  UNL1       -0.1669
     35 C         142.8185  142.1040  169.1577 C.3     1  UNL1        0.4311
     36 F         144.2479  142.5153  169.3521 F       1  UNL1       -0.1669
     37 F         142.7351  142.9316  168.8533 F       1  UNL1       -0.1669
     38 F         143.4729  140.8825  169.7318 F       1  UNL1       -0.1669
@<TRIPOS>BOND
     1    20    21    1
     2    21    17    1
     3    17    18    2
     4    17    19    2
     5    17     5    1
     6     5     6   ar
     7     6     7   ar
     8     7     8   ar
     9     8     9   ar
    10     9    10   ar
    11     9    11    1
    12    11    12    1
    13    12    13   am
    14    13    14    1
    15    13    15    2
    16    12    16    1
    17    16     1    1
    18     1     2    2
    19     1     3   am
    20     3    22    1
    21    22    23   ar
    22    23    24   ar
    23    24    25   ar
    24    25    28    1
    25    28    29    1
    26    28    31    1
    27    31    32    1
    28    31    33    1
    29    31    34    1
    30    28    35    1
    31    35    36    1
    32    35    37    1
    33    35    38    1
    34    25    26   ar
    35    26    27   ar
    36    10     5   ar
    37    27    22   ar
    38    16     8    1
    39     3     4    1
    40    29    30    1
@<TRIPOS>MOLECULE
*****
 38 40 0 0 0
SMALL
GASTEIGER

@<TRIPOS>ATOM
      1 C         140.4311  141.2532  161.3411 C.2     1  UNL1        0.2485
      2 O         141.7570  141.5004  161.9974 O.2     1  UNL1       -0.2726
      3 N         139.2509  140.8370  162.1681 N.am    1  UNL1       -0.2823
      4 H         138.3807  140.6747  161.7374 H       1  UNL1        0.1549
      5 C         140.2202  144.9666  157.1218 C.ar    1  UNL1        0.1054
      6 C         140.3930  145.2656  158.5815 C.ar    1  UNL1        0.0181
      7 C         140.4274  144.1447  159.5777 C.ar    1  UNL1       -0.0011
      8 C         140.2890  142.7248  159.1142 C.ar    1  UNL1        0.0022
      9 C         140.1162  142.4259  157.6545 C.ar    1  UNL1       -0.0030
     10 C         140.0818  143.5468  156.6583 C.ar    1  UNL1        0.0155
     11 C         140.0058  140.9383  157.4959 C.3     1  UNL1        0.1206
     12 N         140.1103  140.3180  158.8576 N.am    1  UNL1       -0.2655
     13 C         140.0502  138.8510  159.1652 C.2     1  UNL1        0.2269
     14 C         139.8706  137.8587  158.0548 C.3     1  UNL1        0.0949
     15 O         140.1699  138.3765  160.5831 O.2     1  UNL1       -0.2748
     16 C         140.2853  141.4221  159.8578 C.3     1  UNL1        0.1750
     17 S         140.1858  146.0875  156.1256 S.O2    1  UNL1        0.0086
     18 O         138.7141  145.8709  155.9328 O.2     1  UNL1       -0.1686
     19 O         141.6575  146.3041  156.3185 O.2     1  UNL1       -0.1686
     20 C         139.0466  148.2218  155.1785 C.3     1  UNL1        0.0276
     21 C         140.1514  147.2084  155.1294 C.3     1  UNL1        0.1560
     22 C         139.3967  140.6680  163.6514 C.ar    1  UNL1        0.0503
     23 C         139.3842  141.8705  164.5480 C.ar    1  UNL1        0.0144
     24 C         139.5299  141.7016  166.0313 C.ar    1  UNL1       -0.0002
     25 C         139.6883  140.3302  166.6181 C.ar    1  UNL1        0.0182
     26 C         139.7008  139.1278  165.7214 C.ar    1  UNL1       -0.0002
     27 C         139.5550  139.2967  164.2381 C.ar    1  UNL1        0.0144
     28 C         139.8340  140.1613  168.1014 C.3     1  UNL1        0.2827
     29 O         138.5788  139.3407  168.1313 O.3     1  UNL1       -0.3692
     30 H         138.2193  139.2668  167.2334 H       1  UNL1        0.2112
     31 C         139.9798  139.9923  169.5847 C.3     1  UNL1        0.4311
     32 F         140.1256  139.8234  171.0680 F       1  UNL1       -0.1669
     33 F         138.7391  140.8075  169.7995 F       1  UNL1       -0.1669
     34 F         140.7175  139.5024  169.5655 F       1  UNL1       -0.1669
     35 C         141.0893  140.9819  168.0715 C.3     1  UNL1        0.4311
     36 F         142.3446  141.8025  168.0416 F       1  UNL1       -0.1669
     37 F         141.5962  140.3887  167.6523 F       1  UNL1       -0.1669
     38 F         140.7035  142.2604  168.7546 F       1  UNL1       -0.1669
@<TRIPOS>BOND
     1    20    21    1
     2    21    17    1
     3    17    18    2
     4    17    19    2
     5    17     5    1
     6     5     6   ar
     7     6     7   ar
     8     7     8   ar
     9     8     9   ar
    10     9    10   ar
    11     9    11    1
    12    11    12    1
    13    12    13   am
    14    13    14    1
    15    13    15    2
    16    12    16    1
    17    16     1    1
    18     1     2    2
    19     1     3   am
    20     3    22    1
    21    22    23   ar
    22    23    24   ar
    23    24    25   ar
    24    25    28    1
    25    28    29    1
    26    28    31    1
    27    31    32    1
    28    31    33    1
    29    31    34    1
    30    28    35    1
    31    35    36    1
    32    35    37    1
    33    35    38    1
    34    25    26   ar
    35    26    27   ar
    36    10     5   ar
    37    27    22   ar
    38    16     8    1
    39     3     4    1
    40    29    30    1
