@<TRIPOS>MOLECULE
*****
 34 38 0 0 0
SMALL
GASTEIGER

@<TRIPOS>ATOM
      1 N         141.9542  138.2226  159.4705 N.3     1  UNL1       -0.2704
      2 C         140.8503  138.4457  160.4613 C.3     1  UNL1        0.0722
      3 C         141.1768  138.7050  161.9021 C.3     1  UNL1        0.0191
      4 C         142.6072  138.7413  162.3522 C.3     1  UNL1        0.0226
      5 C         143.7111  138.5182  161.3615 C.3     1  UNL1        0.0191
      6 C         143.3846  138.2589  159.9207 C.3     1  UNL1        0.0722
      7 C         143.9829  138.8065  162.9466 C.3     1  UNL1        0.0231
      8 C         143.8413  139.0865  164.4135 C.3     1  UNL1        0.0909
      9 N         142.3780  139.1943  164.7257 N.pl3   1  UNL1       -0.3063
     10 C         141.6154  138.9810  163.4518 C.3     1  UNL1        0.0909
     11 C         141.7822  139.4675  166.0748 C.ar    1  UNL1        0.0676
     12 C         142.6641  139.5235  167.2868 C.ar    1  UNL1        0.0223
     13 C         142.0682  139.7968  168.6360 C.ar    1  UNL1        0.0742
     14 C         140.5903  140.0139  168.7731 C.ar    1  UNL1        0.2653
     15 N         139.7083  139.9579  167.5610 N.ar    1  UNL1       -0.1969
     16 C         140.3043  139.6847  166.2119 C.ar    1  UNL1        0.1177
     17 S         139.9944  140.2871  170.1223 S.O     1  UNL1        0.0773
     18 C         140.8386  140.8865  171.2077 C.3     1  UNL1        0.3270
     19 O         138.5542  139.9609  170.3861 O.co2   1  UNL1       -0.6763
     20 C         141.6277  137.9633  158.0296 C.3     1  UNL1        0.1063
     21 C         142.6514  137.3372  157.1296 C.3     1  UNL1        0.1483
     22 O         143.6558  138.1984  156.4229 O.3     1  UNL1       -0.3786
     23 H         144.2394  137.6401  155.8857 H       1  UNL1        0.2108
     24 C         140.9884  136.0834  154.9703 C.3     1  UNL1        0.0306
     25 C         141.8392  135.2229  155.8566 C.ar    1  UNL1       -0.0238
     26 C         142.6707  135.8497  156.9363 C.ar    1  UNL1        0.0015
     27 C         143.5215  134.9892  157.8226 C.ar    1  UNL1       -0.0020
     28 C         143.5408  133.5019  157.6293 C.ar    1  UNL1        0.0060
     29 C         142.7093  132.8751  156.5497 C.ar    1  UNL1        0.0748
     30 C         141.8585  133.7356  155.6633 C.ar    1  UNL1        0.0233
     31 C         141.1496  132.8406  154.6905 C.3     1  UNL1        0.2352
     32 O         141.5623  131.4269  154.9755 O.3     1  UNL1       -0.4404
     33 C         142.5263  131.4483  156.1246 C.2     1  UNL1        0.3413
     34 O         143.1905  130.2527  156.7405 O.2     1  UNL1       -0.2449
@<TRIPOS>UNITY_ATOM_ATTR
17 1
charge 1
19 1
charge -1
@<TRIPOS>BOND
     1    24    25    1
     2    25    26   ar
     3    26    21    1
     4    21    22    1
     5    21    20    1
     6    20     1    1
     7     1     2    1
     8     2     3    1
     9     3     4    1
    10     4     5    1
    11     5     6    1
    12     4     7    1
    13     7     8    1
    14     8     9    1
    15     9    11    1
    16    11    12   ar
    17    12    13   ar
    18    13    14   ar
    19    14    17    1
    20    17    18    1
    21    17    19    2
    22    14    15   ar
    23    15    16   ar
    24     9    10    1
    25    26    27   ar
    26    27    28   ar
    27    28    29   ar
    28    29    30   ar
    29    30    31    1
    30    31    32    1
    31    32    33    1
    32    33    34    2
    33    30    25   ar
    34     6     1    1
    35    16    11   ar
    36    33    29    1
    37    10     4    1
    38    22    23    1
@<TRIPOS>MOLECULE
*****
 34 38 0 0 0
SMALL
GASTEIGER

@<TRIPOS>ATOM
      1 N         141.9993  143.0997  163.6177 N.3     1  UNL1       -0.2704
      2 C         141.0414  142.0525  163.1324 C.3     1  UNL1        0.0722
      3 C         140.3725  142.2081  161.7988 C.3     1  UNL1        0.0191
      4 C         140.6617  143.4110  160.9506 C.3     1  UNL1        0.0226
      5 C         141.6196  144.4582  161.4359 C.3     1  UNL1        0.0191
      6 C         142.2884  144.3026  162.7695 C.3     1  UNL1        0.0722
      7 C         140.8510  144.5535  159.9972 C.3     1  UNL1        0.0231
      8 C         139.9924  144.3001  158.7936 C.3     1  UNL1        0.0909
      9 N         139.2724  143.0009  159.0031 N.pl3   1  UNL1       -0.3063
     10 C         139.6860  142.4515  160.3362 C.3     1  UNL1        0.0909
     11 C         138.3081  142.3632  158.0475 C.ar    1  UNL1        0.0676
     12 C         137.8126  143.1311  156.8580 C.ar    1  UNL1        0.0223
     13 C         136.8482  142.4933  155.9023 C.ar    1  UNL1        0.0742
     14 C         136.3794  141.0878  156.1360 C.ar    1  UNL1        0.2653
     15 N         136.8750  140.3199  157.3255 N.ar    1  UNL1       -0.1969
     16 C         137.8393  140.9577  158.2812 C.ar    1  UNL1        0.1177
     17 S         135.4151  140.4501  155.1803 S.O     1  UNL1        0.0773
     18 C         135.0917  141.1240  153.8798 C.3     1  UNL1        0.3270
     19 O         134.7742  139.1384  155.5250 O.co2   1  UNL1       -0.6763
     20 C         142.6682  142.9441  164.9513 C.3     1  UNL1        0.1063
     21 C         142.7329  141.5957  165.6052 C.3     1  UNL1        0.1483
     22 O         143.7435  140.5870  165.1456 O.3     1  UNL1       -0.3786
     23 H         143.6512  139.7754  165.6687 H       1  UNL1        0.2108
     24 C         143.4034  142.3573  168.4284 C.3     1  UNL1        0.0306
     25 C         142.1221  141.6366  168.1301 C.ar    1  UNL1       -0.0238
     26 C         141.7868  141.2559  166.7186 C.ar    1  UNL1        0.0015
     27 C         140.5055  140.5352  166.4203 C.ar    1  UNL1       -0.0020
     28 C         139.5595  140.1954  167.5336 C.ar    1  UNL1        0.0060
     29 C         139.8948  140.5762  168.9452 C.ar    1  UNL1        0.0748
     30 C         141.1761  141.2968  169.2434 C.ar    1  UNL1        0.0233
     31 C         141.2366  141.5420  170.7220 C.3     1  UNL1        0.2352
     32 O         139.9928  140.9729  171.3376 O.3     1  UNL1       -0.4404
     33 C         139.1635  140.3760  170.2394 C.2     1  UNL1        0.3413
     34 O         137.8359  139.6979  170.4062 O.2     1  UNL1       -0.2449
@<TRIPOS>UNITY_ATOM_ATTR
17 1
charge 1
19 1
charge -1
@<TRIPOS>BOND
     1    24    25    1
     2    25    26   ar
     3    26    21    1
     4    21    22    1
     5    21    20    1
     6    20     1    1
     7     1     2    1
     8     2     3    1
     9     3     4    1
    10     4     5    1
    11     5     6    1
    12     4     7    1
    13     7     8    1
    14     8     9    1
    15     9    11    1
    16    11    12   ar
    17    12    13   ar
    18    13    14   ar
    19    14    17    1
    20    17    18    1
    21    17    19    2
    22    14    15   ar
    23    15    16   ar
    24     9    10    1
    25    26    27   ar
    26    27    28   ar
    27    28    29   ar
    28    29    30   ar
    29    30    31    1
    30    31    32    1
    31    32    33    1
    32    33    34    2
    33    30    25   ar
    34     6     1    1
    35    16    11   ar
    36    33    29    1
    37    10     4    1
    38    22    23    1
@<TRIPOS>MOLECULE
*****
 34 38 0 0 0
SMALL
GASTEIGER

@<TRIPOS>ATOM
      1 N         143.3790  139.8031  163.2960 N.3     1  UNL1       -0.2704
      2 C         143.0451  138.3964  162.8965 C.3     1  UNL1        0.0722
      3 C         142.9326  138.0357  161.4449 C.3     1  UNL1        0.0191
      4 C         143.1540  139.0817  160.3928 C.3     1  UNL1        0.0226
      5 C         143.4879  140.4884  160.7923 C.3     1  UNL1        0.0191
      6 C         143.6004  140.8491  162.2439 C.3     1  UNL1        0.0722
      7 C         143.3473  140.0153  159.2347 C.3     1  UNL1        0.0231
      8 C         143.1412  139.2346  157.9705 C.3     1  UNL1        0.0909
      9 N         142.8206  137.8185  158.3473 N.pl3   1  UNL1       -0.3063
     10 C         142.8285  137.7240  159.8443 C.3     1  UNL1        0.0909
     11 C         142.5412  136.6943  157.3944 C.ar    1  UNL1        0.0676
     12 C         143.3550  135.4360  157.4597 C.ar    1  UNL1        0.0223
     13 C         143.0755  134.3118  156.5067 C.ar    1  UNL1        0.0742
     14 C         141.9823  134.4459  155.4885 C.ar    1  UNL1        0.2653
     15 N         141.1684  135.7043  155.4232 N.ar    1  UNL1       -0.1969
     16 C         141.4479  136.8284  156.3762 C.ar    1  UNL1        0.1177
     17 S         141.7028  133.3217  154.5356 S.O     1  UNL1        0.0773
     18 C         141.0004  132.0870  155.0175 C.3     1  UNL1        0.3270
     19 O         142.1258  133.4322  153.1006 O.co2   1  UNL1       -0.6763
     20 C         143.4915  140.1639  164.7477 C.3     1  UNL1        0.1063
     21 C         142.6586  141.2772  165.3105 C.3     1  UNL1        0.1483
     22 O         142.7409  142.6509  164.7138 O.3     1  UNL1       -0.3786
     23 H         142.1433  143.2473  165.1915 H       1  UNL1        0.2108
     24 C         143.3440  142.3408  168.0306 C.3     1  UNL1        0.0306
     25 C         142.0861  141.5486  167.8302 C.ar    1  UNL1       -0.0238
     26 C         141.7434  141.0168  166.4701 C.ar    1  UNL1        0.0015
     27 C         140.4856  140.2246  166.2697 C.ar    1  UNL1       -0.0020
     28 C         139.5704  139.9642  167.4292 C.ar    1  UNL1        0.0060
     29 C         139.9131  140.4960  168.7892 C.ar    1  UNL1        0.0748
     30 C         141.1709  141.2882  168.9897 C.ar    1  UNL1        0.0233
     31 C         141.2453  141.6820  170.4352 C.3     1  UNL1        0.2352
     32 O         140.0334  141.1332  171.1281 O.3     1  UNL1       -0.4404
     33 C         139.2100  140.4002  170.1108 C.2     1  UNL1        0.3413
     34 O         137.9116  139.6952  170.3697 O.2     1  UNL1       -0.2449
@<TRIPOS>UNITY_ATOM_ATTR
17 1
charge 1
19 1
charge -1
@<TRIPOS>BOND
     1    24    25    1
     2    25    26   ar
     3    26    21    1
     4    21    22    1
     5    21    20    1
     6    20     1    1
     7     1     2    1
     8     2     3    1
     9     3     4    1
    10     4     5    1
    11     5     6    1
    12     4     7    1
    13     7     8    1
    14     8     9    1
    15     9    11    1
    16    11    12   ar
    17    12    13   ar
    18    13    14   ar
    19    14    17    1
    20    17    18    1
    21    17    19    2
    22    14    15   ar
    23    15    16   ar
    24     9    10    1
    25    26    27   ar
    26    27    28   ar
    27    28    29   ar
    28    29    30   ar
    29    30    31    1
    30    31    32    1
    31    32    33    1
    32    33    34    2
    33    30    25   ar
    34     6     1    1
    35    16    11   ar
    36    33    29    1
    37    10     4    1
    38    22    23    1
@<TRIPOS>MOLECULE
*****
 34 38 0 0 0
SMALL
GASTEIGER

@<TRIPOS>ATOM
      1 N         138.4680  139.2184  164.3108 N.3     1  UNL1       -0.2704
      2 C         139.3179  138.1834  163.6354 C.3     1  UNL1        0.0722
      3 C         139.5268  138.2368  162.1510 C.3     1  UNL1        0.0191
      4 C         138.8858  139.3253  161.3420 C.3     1  UNL1        0.0226
      5 C         138.0359  140.3603  162.0175 C.3     1  UNL1        0.0191
      6 C         137.8270  140.3069  163.5019 C.3     1  UNL1        0.0722
      7 C         138.3123  140.3485  160.4072 C.3     1  UNL1        0.0231
      8 C         138.7770  140.0205  159.0191 C.3     1  UNL1        0.0909
      9 N         139.6378  138.7944  159.0962 N.pl3   1  UNL1       -0.3063
     10 C         139.7051  138.3648  160.5318 C.3     1  UNL1        0.0909
     11 C         140.3128  138.1170  157.9407 C.ar    1  UNL1        0.0676
     12 C         139.4980  137.6148  156.7857 C.ar    1  UNL1        0.0223
     13 C         140.1731  136.9373  155.6301 C.ar    1  UNL1        0.0742
     14 C         141.6628  136.7621  155.6294 C.ar    1  UNL1        0.2653
     15 N         142.4776  137.2644  156.7844 N.ar    1  UNL1       -0.1969
     16 C         141.8025  137.9418  157.9400 C.ar    1  UNL1        0.1177
     17 S         142.3378  136.0847  154.4738 S.O     1  UNL1        0.0773
     18 C         141.9668  136.4527  153.0678 C.3     1  UNL1        0.3270
     19 O         143.3839  135.0391  154.7242 O.co2   1  UNL1       -0.6763
     20 C         138.2590  139.1650  165.7953 C.3     1  UNL1        0.1063
     21 C         139.2208  139.8591  166.7135 C.3     1  UNL1        0.1483
     22 O         139.2027  139.5605  168.1834 O.3     1  UNL1       -0.3786
     23 H         139.8823  140.0899  168.6292 H       1  UNL1        0.2108
     24 C         142.0192  138.9989  166.0581 C.3     1  UNL1        0.0306
     25 C         141.6000  140.4216  165.8342 C.ar    1  UNL1       -0.0238
     26 C         140.2009  140.8517  166.1618 C.ar    1  UNL1        0.0015
     27 C         139.7817  142.2745  165.9379 C.ar    1  UNL1       -0.0020
     28 C         140.7617  143.2671  165.3863 C.ar    1  UNL1        0.0060
     29 C         142.1608  142.8370  165.0586 C.ar    1  UNL1        0.0748
     30 C         142.5799  141.4143  165.2825 C.ar    1  UNL1        0.0233
     31 C         144.0159  141.2836  164.8689 C.3     1  UNL1        0.2352
     32 O         144.4841  142.6255  164.3893 O.3     1  UNL1       -0.4404
     33 C         143.3376  143.5855  164.5066 C.2     1  UNL1        0.3413
     34 O         143.3634  145.0390  164.1368 O.2     1  UNL1       -0.2449
@<TRIPOS>UNITY_ATOM_ATTR
17 1
charge 1
19 1
charge -1
@<TRIPOS>BOND
     1    24    25    1
     2    25    26   ar
     3    26    21    1
     4    21    22    1
     5    21    20    1
     6    20     1    1
     7     1     2    1
     8     2     3    1
     9     3     4    1
    10     4     5    1
    11     5     6    1
    12     4     7    1
    13     7     8    1
    14     8     9    1
    15     9    11    1
    16    11    12   ar
    17    12    13   ar
    18    13    14   ar
    19    14    17    1
    20    17    18    1
    21    17    19    2
    22    14    15   ar
    23    15    16   ar
    24     9    10    1
    25    26    27   ar
    26    27    28   ar
    27    28    29   ar
    28    29    30   ar
    29    30    31    1
    30    31    32    1
    31    32    33    1
    32    33    34    2
    33    30    25   ar
    34     6     1    1
    35    16    11   ar
    36    33    29    1
    37    10     4    1
    38    22    23    1
@<TRIPOS>MOLECULE
*****
 34 38 0 0 0
SMALL
GASTEIGER

@<TRIPOS>ATOM
      1 N         144.9882  141.5235  163.2799 N.3     1  UNL1       -0.2704
      2 C         144.6745  141.8916  161.8600 C.3     1  UNL1        0.0722
      3 C         144.0734  140.8737  160.9367 C.3     1  UNL1        0.0191
      4 C         143.7860  139.4878  161.4332 C.3     1  UNL1        0.0226
      5 C         144.0997  139.1197  162.8531 C.3     1  UNL1        0.0191
      6 C         144.7008  140.1376  163.7764 C.3     1  UNL1        0.0722
      7 C         143.4450  138.0702  161.7856 C.3     1  UNL1        0.0231
      8 C         142.8686  137.4150  160.5655 C.3     1  UNL1        0.0909
      9 N         142.8534  138.4278  159.4590 N.pl3   1  UNL1       -0.3063
     10 C         143.4204  139.7088  159.9953 C.3     1  UNL1        0.0909
     11 C         142.3582  138.1996  158.0617 C.ar    1  UNL1        0.0676
     12 C         142.6000  136.8824  157.3860 C.ar    1  UNL1        0.0223
     13 C         142.1048  136.6542  155.9886 C.ar    1  UNL1        0.0742
     14 C         141.3677  137.7431  155.2669 C.ar    1  UNL1        0.2653
     15 N         141.1258  139.0604  155.9426 N.ar    1  UNL1       -0.1969
     16 C         141.6211  139.2885  157.3400 C.ar    1  UNL1        0.1177
     17 S         140.8725  137.5149  153.8695 S.O     1  UNL1        0.0773
     18 C         140.5313  136.1278  153.4119 C.3     1  UNL1        0.3270
     19 O         140.7183  138.6739  152.9298 O.co2   1  UNL1       -0.6763
     20 C         145.5894  142.5414  164.2033 C.3     1  UNL1        0.1063
     21 C         144.7002  143.4593  164.9886 C.3     1  UNL1        0.1483
     22 O         145.2248  144.1424  166.2167 O.3     1  UNL1       -0.3786
     23 H         144.5273  144.6954  166.6020 H       1  UNL1        0.2108
     24 C         142.4699  141.8355  166.1671 C.3     1  UNL1        0.0306
     25 C         142.1712  142.8823  165.1351 C.ar    1  UNL1       -0.0238
     26 C         143.2864  143.6942  164.5459 C.ar    1  UNL1        0.0015
     27 C         142.9877  144.7411  163.5139 C.ar    1  UNL1       -0.0020
     28 C         141.5740  144.9760  163.0712 C.ar    1  UNL1        0.0060
     29 C         140.4589  144.1641  163.6604 C.ar    1  UNL1        0.0748
     30 C         140.7575  143.1172  164.6924 C.ar    1  UNL1        0.0233
     31 C         139.4611  142.4769  165.0917 C.3     1  UNL1        0.2352
     32 O         138.3613  143.1280  164.3065 O.3     1  UNL1       -0.4404
     33 C         138.9779  144.1707  163.4219 C.2     1  UNL1        0.3413
     34 O         138.2428  145.0634  162.4666 O.2     1  UNL1       -0.2449
@<TRIPOS>UNITY_ATOM_ATTR
17 1
charge 1
19 1
charge -1
@<TRIPOS>BOND
     1    24    25    1
     2    25    26   ar
     3    26    21    1
     4    21    22    1
     5    21    20    1
     6    20     1    1
     7     1     2    1
     8     2     3    1
     9     3     4    1
    10     4     5    1
    11     5     6    1
    12     4     7    1
    13     7     8    1
    14     8     9    1
    15     9    11    1
    16    11    12   ar
    17    12    13   ar
    18    13    14   ar
    19    14    17    1
    20    17    18    1
    21    17    19    2
    22    14    15   ar
    23    15    16   ar
    24     9    10    1
    25    26    27   ar
    26    27    28   ar
    27    28    29   ar
    28    29    30   ar
    29    30    31    1
    30    31    32    1
    31    32    33    1
    32    33    34    2
    33    30    25   ar
    34     6     1    1
    35    16    11   ar
    36    33    29    1
    37    10     4    1
    38    22    23    1
@<TRIPOS>MOLECULE
*****
 34 38 0 0 0
SMALL
GASTEIGER

@<TRIPOS>ATOM
      1 N         143.7249  139.7770  163.1124 N.3     1  UNL1       -0.2704
      2 C         143.3419  138.3788  162.7273 C.3     1  UNL1        0.0722
      3 C         143.1384  138.0277  161.2833 C.3     1  UNL1        0.0191
      4 C         143.3179  139.0747  160.2243 C.3     1  UNL1        0.0226
      5 C         143.7009  140.4729  160.6094 C.3     1  UNL1        0.0191
      6 C         143.9044  140.8241  162.0534 C.3     1  UNL1        0.0722
      7 C         143.4610  140.0105  159.0608 C.3     1  UNL1        0.0231
      8 C         143.1671  139.2402  157.8075 C.3     1  UNL1        0.0909
      9 N         142.8423  137.8284  158.1967 N.pl3   1  UNL1       -0.3063
     10 C         142.9355  137.7261  159.6902 C.3     1  UNL1        0.0909
     11 C         142.4868  136.7145  157.2572 C.ar    1  UNL1        0.0676
     12 C         141.3123  136.8571  156.3351 C.ar    1  UNL1        0.0223
     13 C         140.9568  135.7432  155.3955 C.ar    1  UNL1        0.0742
     14 C         141.7758  134.4866  155.3780 C.ar    1  UNL1        0.2653
     15 N         142.9504  134.3440  156.3001 N.ar    1  UNL1       -0.1969
     16 C         143.3058  135.4580  157.2396 C.ar    1  UNL1        0.1177
     17 S         141.4203  133.3727  154.4385 S.O     1  UNL1        0.0773
     18 C         141.6868  133.5168  152.9694 C.3     1  UNL1        0.3270
     19 O         140.7982  132.1146  154.9681 O.co2   1  UNL1       -0.6763
     20 C         143.9284  140.1282  164.5565 C.3     1  UNL1        0.1063
     21 C         142.7498  140.4733  165.4177 C.3     1  UNL1        0.1483
     22 O         142.7447  140.0941  166.8690 O.3     1  UNL1       -0.3786
     23 H         141.9157  140.3888  167.2772 H       1  UNL1        0.2108
     24 C         140.2452  138.9683  164.7381 C.3     1  UNL1        0.0306
     25 C         140.3240  140.4452  164.4879 C.ar    1  UNL1       -0.0238
     26 C         141.5762  141.1977  164.8277 C.ar    1  UNL1        0.0015
     27 C         141.6550  142.6745  164.5774 C.ar    1  UNL1       -0.0020
     28 C         140.4815  143.3989  163.9875 C.ar    1  UNL1        0.0060
     29 C         139.2292  142.6464  163.6477 C.ar    1  UNL1        0.0748
     30 C         139.1504  141.1695  163.8979 C.ar    1  UNL1        0.0233
     31 C         137.7941  140.6977  163.4647 C.3     1  UNL1        0.2352
     32 O         137.0346  141.8830  162.9467 O.3     1  UNL1       -0.4404
     33 C         137.9215  143.0873  163.0598 C.2     1  UNL1        0.3413
     34 O         137.5637  144.4869  162.6560 O.2     1  UNL1       -0.2449
@<TRIPOS>UNITY_ATOM_ATTR
17 1
charge 1
19 1
charge -1
@<TRIPOS>BOND
     1    24    25    1
     2    25    26   ar
     3    26    21    1
     4    21    22    1
     5    21    20    1
     6    20     1    1
     7     1     2    1
     8     2     3    1
     9     3     4    1
    10     4     5    1
    11     5     6    1
    12     4     7    1
    13     7     8    1
    14     8     9    1
    15     9    11    1
    16    11    12   ar
    17    12    13   ar
    18    13    14   ar
    19    14    17    1
    20    17    18    1
    21    17    19    2
    22    14    15   ar
    23    15    16   ar
    24     9    10    1
    25    26    27   ar
    26    27    28   ar
    27    28    29   ar
    28    29    30   ar
    29    30    31    1
    30    31    32    1
    31    32    33    1
    32    33    34    2
    33    30    25   ar
    34     6     1    1
    35    16    11   ar
    36    33    29    1
    37    10     4    1
    38    22    23    1
@<TRIPOS>MOLECULE
*****
 34 38 0 0 0
SMALL
GASTEIGER

@<TRIPOS>ATOM
      1 N         138.6668  141.3241  164.0836 N.3     1  UNL1       -0.2704
      2 C         139.0841  140.9176  162.7014 C.3     1  UNL1        0.0722
      3 C         139.5359  141.9565  161.7183 C.3     1  UNL1        0.0191
      4 C         139.5705  143.4020  162.1175 C.3     1  UNL1        0.0226
      5 C         139.1532  143.8086  163.4997 C.3     1  UNL1        0.0191
      6 C         138.7013  142.7696  164.4827 C.3     1  UNL1        0.0722
      7 C         139.6573  144.8778  162.3717 C.3     1  UNL1        0.0231
      8 C         140.1554  145.5355  161.1189 C.3     1  UNL1        0.0909
      9 N         140.3763  144.4661  160.0904 N.pl3   1  UNL1       -0.3063
     10 C         140.0149  143.1476  160.7075 C.3     1  UNL1        0.0909
     11 C         140.8718  144.6781  158.6906 C.ar    1  UNL1        0.0676
     12 C         141.9558  143.8010  158.1378 C.ar    1  UNL1        0.0223
     13 C         142.4512  144.0130  156.7379 C.ar    1  UNL1        0.0742
     14 C         141.8627  145.1021  155.8909 C.ar    1  UNL1        0.2653
     15 N         140.7786  145.9793  156.4437 N.ar    1  UNL1       -0.1969
     16 C         140.2832  145.7672  157.8436 C.ar    1  UNL1        0.1177
     17 S         142.3582  145.3141  154.4910 S.O     1  UNL1        0.0773
     18 C         143.5770  144.5852  154.0084 C.3     1  UNL1        0.3270
     19 O         141.6347  146.2551  153.5738 O.co2   1  UNL1       -0.6763
     20 C         138.2149  140.2852  165.0667 C.3     1  UNL1        0.1063
     21 C         139.2268  139.5139  165.8610 C.3     1  UNL1        0.1483
     22 O         139.6210  138.1314  165.4327 O.3     1  UNL1       -0.3786
     23 H         140.2796  137.7770  166.0504 H       1  UNL1        0.2108
     24 C         141.8643  140.9295  165.6611 C.3     1  UNL1        0.0306
     25 C         141.1633  140.8328  166.9838 C.ar    1  UNL1       -0.0238
     26 C         139.8446  140.1250  167.0837 C.ar    1  UNL1        0.0015
     27 C         139.1437  140.0283  168.4063 C.ar    1  UNL1       -0.0020
     28 C         139.7614  140.6394  169.6290 C.ar    1  UNL1        0.0060
     29 C         141.0801  141.3471  169.5290 C.ar    1  UNL1        0.0748
     30 C         141.7811  141.4439  168.2064 C.ar    1  UNL1        0.0233
     31 C         143.0610  142.1979  168.4142 C.3     1  UNL1        0.2352
     32 O         143.1511  142.5673  169.8652 O.3     1  UNL1       -0.4404
     33 C         141.9268  142.0415  170.5542 C.2     1  UNL1        0.3413
     34 O         141.6056  142.1848  172.0124 O.2     1  UNL1       -0.2449
@<TRIPOS>UNITY_ATOM_ATTR
17 1
charge 1
19 1
charge -1
@<TRIPOS>BOND
     1    24    25    1
     2    25    26   ar
     3    26    21    1
     4    21    22    1
     5    21    20    1
     6    20     1    1
     7     1     2    1
     8     2     3    1
     9     3     4    1
    10     4     5    1
    11     5     6    1
    12     4     7    1
    13     7     8    1
    14     8     9    1
    15     9    11    1
    16    11    12   ar
    17    12    13   ar
    18    13    14   ar
    19    14    17    1
    20    17    18    1
    21    17    19    2
    22    14    15   ar
    23    15    16   ar
    24     9    10    1
    25    26    27   ar
    26    27    28   ar
    27    28    29   ar
    28    29    30   ar
    29    30    31    1
    30    31    32    1
    31    32    33    1
    32    33    34    2
    33    30    25   ar
    34     6     1    1
    35    16    11   ar
    36    33    29    1
    37    10     4    1
    38    22    23    1
@<TRIPOS>MOLECULE
*****
 34 38 0 0 0
SMALL
GASTEIGER

@<TRIPOS>ATOM
      1 N         138.3181  140.1322  163.4923 N.3     1  UNL1       -0.2704
      2 C         138.5363  141.5715  163.1308 C.3     1  UNL1        0.0722
      3 C         138.6830  141.9695  161.6921 C.3     1  UNL1        0.0191
      4 C         138.6116  140.9281  160.6148 C.3     1  UNL1        0.0226
      5 C         138.3935  139.4888  160.9763 C.3     1  UNL1        0.0191
      6 C         138.2467  139.0908  162.4150 C.3     1  UNL1        0.0722
      7 C         138.5626  140.0033  159.4348 C.3     1  UNL1        0.0231
      8 C         138.7539  140.8245  158.1940 C.3     1  UNL1        0.0909
      9 N         138.9210  142.2567  158.6073 N.pl3   1  UNL1       -0.3063
     10 C         138.8331  142.3208  160.1034 C.3     1  UNL1        0.0909
     11 C         139.1380  143.4205  157.6863 C.ar    1  UNL1        0.0676
     12 C         140.0312  144.5510  158.1037 C.ar    1  UNL1        0.0223
     13 C         140.2481  145.7148  157.1826 C.ar    1  UNL1        0.0742
     14 C         139.5719  145.7482  155.8441 C.ar    1  UNL1        0.2653
     15 N         138.6787  144.6177  155.4266 N.ar    1  UNL1       -0.1969
     16 C         138.4618  143.4539  156.3478 C.ar    1  UNL1        0.1177
     17 S         139.7889  146.9121  154.9230 S.O     1  UNL1        0.0773
     18 C         140.6992  146.7720  153.7390 C.3     1  UNL1        0.3270
     19 O         139.0955  148.2160  155.1859 O.co2   1  UNL1       -0.6763
     20 C         138.1714  139.7341  164.9311 C.3     1  UNL1        0.1063
     21 C         139.3425  139.1636  165.6746 C.3     1  UNL1        0.1483
     22 O         139.9882  137.8963  165.1981 O.3     1  UNL1       -0.3786
     23 H         140.7246  137.6675  165.7866 H       1  UNL1        0.2108
     24 C         141.8773  140.7603  165.5155 C.3     1  UNL1        0.0306
     25 C         141.1353  140.6586  166.8152 C.ar    1  UNL1       -0.0238
     26 C         139.8679  139.8602  166.8947 C.ar    1  UNL1        0.0015
     27 C         139.1259  139.7585  168.1944 C.ar    1  UNL1       -0.0020
     28 C         139.6513  140.4551  169.4145 C.ar    1  UNL1        0.0060
     29 C         140.9187  141.2535  169.3349 C.ar    1  UNL1        0.0748
     30 C         141.6606  141.3552  168.0353 C.ar    1  UNL1        0.0233
     31 C         142.8743  142.2076  168.2599 C.3     1  UNL1        0.2352
     32 O         142.8825  142.6326  169.6984 O.3     1  UNL1       -0.4404
     33 C         141.6738  142.0430  170.3628 C.2     1  UNL1        0.3413
     34 O         141.2880  142.2129  171.8023 O.2     1  UNL1       -0.2449
@<TRIPOS>UNITY_ATOM_ATTR
17 1
charge 1
19 1
charge -1
@<TRIPOS>BOND
     1    24    25    1
     2    25    26   ar
     3    26    21    1
     4    21    22    1
     5    21    20    1
     6    20     1    1
     7     1     2    1
     8     2     3    1
     9     3     4    1
    10     4     5    1
    11     5     6    1
    12     4     7    1
    13     7     8    1
    14     8     9    1
    15     9    11    1
    16    11    12   ar
    17    12    13   ar
    18    13    14   ar
    19    14    17    1
    20    17    18    1
    21    17    19    2
    22    14    15   ar
    23    15    16   ar
    24     9    10    1
    25    26    27   ar
    26    27    28   ar
    27    28    29   ar
    28    29    30   ar
    29    30    31    1
    30    31    32    1
    31    32    33    1
    32    33    34    2
    33    30    25   ar
    34     6     1    1
    35    16    11   ar
    36    33    29    1
    37    10     4    1
    38    22    23    1
@<TRIPOS>MOLECULE
*****
 34 38 0 0 0
SMALL
GASTEIGER

@<TRIPOS>ATOM
      1 N         144.5337  141.8313  162.6183 N.3     1  UNL1       -0.2704
      2 C         144.1766  140.4009  162.3423 C.3     1  UNL1        0.0722
      3 C         143.8382  139.9682  160.9465 C.3     1  UNL1        0.0191
      4 C         143.8570  140.9660  159.8267 C.3     1  UNL1        0.0226
      5 C         144.2142  142.3965  160.1026 C.3     1  UNL1        0.0191
      6 C         144.5525  142.8291  161.4984 C.3     1  UNL1        0.0722
      7 C         143.8338  141.8459  158.6121 C.3     1  UNL1        0.0231
      8 C         143.4449  141.0012  157.4350 C.3     1  UNL1        0.0909
      9 N         143.2278  139.5992  157.9223 N.pl3   1  UNL1       -0.3063
     10 C         143.4825  139.5774  159.4003 C.3     1  UNL1        0.0909
     11 C         142.8265  138.4251  157.0794 C.ar    1  UNL1        0.0676
     12 C         142.4544  138.6272  155.6405 C.ar    1  UNL1        0.0223
     13 C         142.0530  137.4530  154.7976 C.ar    1  UNL1        0.0742
     14 C         142.0239  136.0769  155.3937 C.ar    1  UNL1        0.2653
     15 N         142.3961  135.8748  156.8327 N.ar    1  UNL1       -0.1969
     16 C         142.7974  137.0490  157.6755 C.ar    1  UNL1        0.1177
     17 S         141.6226  134.9028  154.5508 S.O     1  UNL1        0.0773
     18 C         141.6971  134.9926  153.0554 C.3     1  UNL1        0.3270
     19 O         141.1467  133.6387  155.2035 O.co2   1  UNL1       -0.6763
     20 C         144.8721  142.2640  164.0141 C.3     1  UNL1        0.1063
     21 C         143.7907  142.7563  164.9296 C.3     1  UNL1        0.1483
     22 O         144.1381  143.2536  166.3015 O.3     1  UNL1       -0.3786
     23 H         143.3294  143.5323  166.7588 H       1  UNL1        0.2108
     24 C         142.5949  145.2256  163.7160 C.3     1  UNL1        0.0306
     25 C         141.7639  143.9859  163.8665 C.ar    1  UNL1       -0.0238
     26 C         142.3617  142.7513  164.4733 C.ar    1  UNL1        0.0015
     27 C         141.5307  141.5116  164.6238 C.ar    1  UNL1       -0.0020
     28 C         140.1018  141.5066  164.1675 C.ar    1  UNL1        0.0060
     29 C         139.5040  142.7412  163.5607 C.ar    1  UNL1        0.0748
     30 C         140.3350  143.9809  163.4102 C.ar    1  UNL1        0.0233
     31 C         139.4789  145.0391  162.7800 C.3     1  UNL1        0.2352
     32 O         138.1188  144.4535  162.5409 O.3     1  UNL1       -0.4404
     33 C         138.1343  143.0334  163.0235 C.2     1  UNL1        0.3413
     34 O         136.9824  142.0737  162.9769 O.2     1  UNL1       -0.2449
@<TRIPOS>UNITY_ATOM_ATTR
17 1
charge 1
19 1
charge -1
@<TRIPOS>BOND
     1    24    25    1
     2    25    26   ar
     3    26    21    1
     4    21    22    1
     5    21    20    1
     6    20     1    1
     7     1     2    1
     8     2     3    1
     9     3     4    1
    10     4     5    1
    11     5     6    1
    12     4     7    1
    13     7     8    1
    14     8     9    1
    15     9    11    1
    16    11    12   ar
    17    12    13   ar
    18    13    14   ar
    19    14    17    1
    20    17    18    1
    21    17    19    2
    22    14    15   ar
    23    15    16   ar
    24     9    10    1
    25    26    27   ar
    26    27    28   ar
    27    28    29   ar
    28    29    30   ar
    29    30    31    1
    30    31    32    1
    31    32    33    1
    32    33    34    2
    33    30    25   ar
    34     6     1    1
    35    16    11   ar
    36    33    29    1
    37    10     4    1
    38    22    23    1
