@<TRIPOS>MOLECULE
*****
 32 35 0 0 0
SMALL
GASTEIGER

@<TRIPOS>ATOM
      1 C         140.2693  139.7098  165.8038 C.ar    1  UNL1        0.0659
      2 C         138.9066  140.3293  165.8992 C.ar    1  UNL1        0.0159
      3 C         138.0912  140.5427  164.6584 C.ar    1  UNL1        0.0014
      4 C         138.6385  140.1367  163.3222 C.ar    1  UNL1        0.0032
      5 C         137.6679  140.4360  162.2186 C.ar    1  UNL1        0.0016
      6 C         137.8202  140.1898  160.7467 C.ar    1  UNL1        0.0192
      7 C         138.9809  139.5833  160.0152 C.ar    1  UNL1        0.0844
      8 N         138.7247  139.5188  158.5386 N.ar    1  UNL1       -0.2437
      9 C         139.7634  138.9443  157.6216 C.ar    1  UNL1        0.0989
     10 C         141.0584  138.4343  158.1812 C.ar    1  UNL1        0.0223
     11 C         141.3146  138.4989  159.6577 C.ar    1  UNL1        0.0063
     12 C         140.2758  139.0734  160.5747 C.ar    1  UNL1        0.0566
     13 C         140.7299  139.0440  162.0041 C.ar    1  UNL1        0.1970
     14 O         142.0929  138.4647  162.2420 O.2     1  UNL1       -0.2865
     15 C         140.0012  139.5172  163.2268 C.ar    1  UNL1        0.0403
     16 C         140.8166  139.3037  164.4676 C.ar    1  UNL1        0.0191
     17 C         142.0972  137.8598  157.2642 C.ar    1  UNL1        0.0411
     18 C         143.2607  138.6012  156.6756 C.ar    1  UNL1        0.1217
     19 N         144.0375  137.6426  155.8224 N.ar    1  UNL1       -0.1676
     20 N         143.3540  136.3088  155.8838 N.ar    1  UNL1       -0.2473
     21 C         143.7926  135.0600  155.1780 C.3     1  UNL1        0.1538
     22 C         142.1548  136.4431  156.7749 C.ar    1  UNL1        0.0967
     23 N         141.0847  139.4963  167.0446 N.pl3   1  UNL1       -0.2052
     24 H         141.3991  138.5929  167.2777 H       1  UNL1        0.1748
     25 S         141.4211  140.6592  167.9303 S.O2    1  UNL1        0.1130
     26 O         140.5351  140.0985  169.0030 O.2     1  UNL1       -0.1379
     27 O         142.3070  141.2199  166.8576 O.2     1  UNL1       -0.1379
     28 N         141.7575  141.8221  168.8160 N.3     1  UNL1       -0.1428
     29 C         144.0202  142.4037  169.9526 C.3     1  UNL1        0.0207
     30 C         143.1213  142.4434  168.7525 C.3     1  UNL1        0.0972
     31 C         140.7301  142.3638  169.7652 C.3     1  UNL1        0.0972
     32 C         140.4655  143.8391  169.8222 C.3     1  UNL1        0.0207
@<TRIPOS>BOND
     1    29    30    1
     2    30    28    1
     3    28    31    1
     4    31    32    1
     5    28    25    1
     6    25    26    2
     7    25    27    2
     8    25    23    1
     9    23     1    1
    10     1     2   ar
    11     2     3   ar
    12     3     4   ar
    13     4     5   ar
    14     5     6   ar
    15     6     7   ar
    16     7     8   ar
    17     8     9   ar
    18     9    10   ar
    19    10    17    1
    20    17    18   ar
    21    18    19   ar
    22    19    20   ar
    23    20    21    1
    24    20    22   ar
    25    10    11   ar
    26    11    12   ar
    27    12    13   ar
    28    13    14    2
    29    13    15   ar
    30    15    16   ar
    31    16     1   ar
    32    15     4   ar
    33    12     7   ar
    34    22    17   ar
    35    23    24    1
@<TRIPOS>MOLECULE
*****
 32 35 0 0 0
SMALL
GASTEIGER

@<TRIPOS>ATOM
      1 C         141.3777  139.3392  165.9906 C.ar    1  UNL1        0.0659
      2 C         139.9080  139.2295  166.2699 C.ar    1  UNL1        0.0159
      3 C         138.9457  138.9973  165.1430 C.ar    1  UNL1        0.0014
      4 C         139.4529  138.8747  163.7367 C.ar    1  UNL1        0.0032
      5 C         138.3312  138.6462  162.7675 C.ar    1  UNL1        0.0016
      6 C         138.4021  138.4709  161.2795 C.ar    1  UNL1        0.0192
      7 C         139.6122  138.4808  160.3932 C.ar    1  UNL1        0.0844
      8 N         139.2403  138.2683  158.9556 N.ar    1  UNL1       -0.2437
      9 C         140.3066  138.2436  157.9009 C.ar    1  UNL1        0.0989
     10 C         141.7448  138.4313  158.2838 C.ar    1  UNL1        0.0223
     11 C         142.1166  138.6437  159.7213 C.ar    1  UNL1        0.0063
     12 C         141.0503  138.6685  160.7760 C.ar    1  UNL1        0.0566
     13 C         141.6335  138.8926  162.1398 C.ar    1  UNL1        0.1970
     14 O         143.1247  139.0451  162.1928 O.2     1  UNL1       -0.2865
     15 C         140.9226  138.9844  163.4574 C.ar    1  UNL1        0.0403
     16 C         141.8849  139.2166  164.5843 C.ar    1  UNL1        0.0191
     17 C         142.8111  138.4065  157.2291 C.ar    1  UNL1        0.0411
     18 C         143.2879  137.1941  156.4857 C.ar    1  UNL1        0.1217
     19 N         144.3593  137.6281  155.5297 N.ar    1  UNL1       -0.1676
     20 N         144.5446  139.1087  155.6823 N.ar    1  UNL1       -0.2473
     21 C         145.5161  139.9590  154.9187 C.3     1  UNL1        0.1538
     22 C         143.5877  139.5898  156.7326 C.ar    1  UNL1        0.0967
     23 N         142.3400  139.5714  167.1175 N.pl3   1  UNL1       -0.2052
     24 H         143.1645  139.0370  167.1787 H       1  UNL1        0.1748
     25 S         142.0462  140.6180  168.1510 S.O2    1  UNL1        0.1130
     26 O         141.9035  139.5487  169.1932 O.2     1  UNL1       -0.1379
     27 O         142.1889  141.6873  167.1089 O.2     1  UNL1       -0.1379
     28 N         141.7523  141.6646  169.1846 N.3     1  UNL1       -0.1428
     29 C         140.3826  143.8047  169.7271 C.3     1  UNL1        0.0207
     30 C         140.4637  142.4305  169.1312 C.3     1  UNL1        0.0972
     31 C         142.7471  141.9454  170.2716 C.3     1  UNL1        0.0972
     32 C         144.1048  142.4809  169.9257 C.3     1  UNL1        0.0207
@<TRIPOS>BOND
     1    29    30    1
     2    30    28    1
     3    28    31    1
     4    31    32    1
     5    28    25    1
     6    25    26    2
     7    25    27    2
     8    25    23    1
     9    23     1    1
    10     1     2   ar
    11     2     3   ar
    12     3     4   ar
    13     4     5   ar
    14     5     6   ar
    15     6     7   ar
    16     7     8   ar
    17     8     9   ar
    18     9    10   ar
    19    10    17    1
    20    17    18   ar
    21    18    19   ar
    22    19    20   ar
    23    20    21    1
    24    20    22   ar
    25    10    11   ar
    26    11    12   ar
    27    12    13   ar
    28    13    14    2
    29    13    15   ar
    30    15    16   ar
    31    16     1   ar
    32    15     4   ar
    33    12     7   ar
    34    22    17   ar
    35    23    24    1
@<TRIPOS>MOLECULE
*****
 32 35 0 0 0
SMALL
GASTEIGER

@<TRIPOS>ATOM
      1 C         142.3391  144.0869  160.2509 C.ar    1  UNL1        0.0659
      2 C         143.0005  143.1612  159.2734 C.ar    1  UNL1        0.0159
      3 C         143.5170  141.8300  159.7327 C.ar    1  UNL1        0.0014
      4 C         143.3723  141.4245  161.1696 C.ar    1  UNL1        0.0032
      5 C         143.9524  140.0634  161.4159 C.ar    1  UNL1        0.0016
      6 C         144.0145  139.2918  162.7008 C.ar    1  UNL1        0.0192
      7 C         143.5118  139.6908  164.0566 C.ar    1  UNL1        0.0844
      8 N         143.7753  138.6217  165.0752 N.ar    1  UNL1       -0.2437
      9 C         143.3498  138.8217  166.4996 C.ar    1  UNL1        0.0989
     10 C         142.6608  140.0909  166.9054 C.ar    1  UNL1        0.0223
     11 C         142.3973  141.1599  165.8868 C.ar    1  UNL1        0.0063
     12 C         142.8228  140.9599  164.4624 C.ar    1  UNL1        0.0566
     13 C         142.4664  142.1435  163.6125 C.ar    1  UNL1        0.1970
     14 O         141.7739  143.2691  164.3220 O.2     1  UNL1       -0.2865
     15 C         142.7109  142.3502  162.1471 C.ar    1  UNL1        0.0403
     16 C         142.1944  143.6814  161.6878 C.ar    1  UNL1        0.0191
     17 C         142.2353  140.2909  168.3298 C.ar    1  UNL1        0.0411
     18 C         142.5618  139.3885  169.4825 C.ar    1  UNL1        0.1217
     19 N         141.9369  139.9683  170.7167 N.ar    1  UNL1       -0.1676
     20 N         141.2241  141.2292  170.3267 N.ar    1  UNL1       -0.2473
     21 C         140.4610  142.1322  171.2499 C.3     1  UNL1        0.1538
     22 C         141.4086  141.4286  168.8515 C.ar    1  UNL1        0.0967
     23 N         141.8226  145.4182  159.7916 N.pl3   1  UNL1       -0.2052
     24 H         142.0463  146.2336  160.2958 H       1  UNL1        0.1748
     25 S         140.9652  145.5070  158.5641 S.O2    1  UNL1        0.1130
     26 O         139.8408  144.8420  159.3013 O.2     1  UNL1       -0.1379
     27 O         142.0895  146.1720  157.8269 O.2     1  UNL1       -0.1379
     28 N         140.1078  145.5959  157.3364 N.3     1  UNL1       -0.1428
     29 C         140.8273  143.5882  155.8527 C.3     1  UNL1        0.0207
     30 C         139.7572  144.3521  156.5748 C.3     1  UNL1        0.0972
     31 C         139.6009  146.9286  156.8705 C.3     1  UNL1        0.0972
     32 C         139.3024  147.1512  155.4175 C.3     1  UNL1        0.0207
@<TRIPOS>BOND
     1    29    30    1
     2    30    28    1
     3    28    31    1
     4    31    32    1
     5    28    25    1
     6    25    26    2
     7    25    27    2
     8    25    23    1
     9    23     1    1
    10     1     2   ar
    11     2     3   ar
    12     3     4   ar
    13     4     5   ar
    14     5     6   ar
    15     6     7   ar
    16     7     8   ar
    17     8     9   ar
    18     9    10   ar
    19    10    17    1
    20    17    18   ar
    21    18    19   ar
    22    19    20   ar
    23    20    21    1
    24    20    22   ar
    25    10    11   ar
    26    11    12   ar
    27    12    13   ar
    28    13    14    2
    29    13    15   ar
    30    15    16   ar
    31    16     1   ar
    32    15     4   ar
    33    12     7   ar
    34    22    17   ar
    35    23    24    1
@<TRIPOS>MOLECULE
*****
 32 35 0 0 0
SMALL
GASTEIGER

@<TRIPOS>ATOM
      1 C         139.8610  142.5433  165.4330 C.ar    1  UNL1        0.0659
      2 C         139.1679  143.8675  165.5597 C.ar    1  UNL1        0.0159
      3 C         139.2329  144.8586  164.4356 C.ar    1  UNL1        0.0014
      4 C         139.9910  144.5255  163.1849 C.ar    1  UNL1        0.0032
      5 C         139.9303  145.6481  162.1919 C.ar    1  UNL1        0.0016
      6 C         140.5479  145.7238  160.8270 C.ar    1  UNL1        0.0192
      7 C         141.3785  144.6956  160.1180 C.ar    1  UNL1        0.0844
      8 N         141.8006  145.1734  158.7602 N.ar    1  UNL1       -0.2437
      9 C         142.6410  144.2933  157.8832 C.ar    1  UNL1        0.0989
     10 C         143.0593  142.9353  158.3640 C.ar    1  UNL1        0.0223
     11 C         142.6373  142.4576  159.7218 C.ar    1  UNL1        0.0063
     12 C         141.7969  143.3377  160.5988 C.ar    1  UNL1        0.0566
     13 C         141.4878  142.6727  161.9074 C.ar    1  UNL1        0.1970
     14 O         142.0578  141.2972  162.0889 O.2     1  UNL1       -0.2865
     15 C         140.6841  143.2013  163.0583 C.ar    1  UNL1        0.0403
     16 C         140.6191  142.2102  164.1823 C.ar    1  UNL1        0.0191
     17 C         143.8997  142.0552  157.4870 C.ar    1  UNL1        0.0411
     18 C         144.3089  140.6438  157.7876 C.ar    1  UNL1        0.1217
     19 N         145.1406  140.1482  156.6418 N.ar    1  UNL1       -0.1676
     20 N         145.2454  141.2535  155.6331 N.ar    1  UNL1       -0.2473
     21 C         145.9869  141.1911  154.3307 C.3     1  UNL1        0.1538
     22 C         144.4785  142.4320  156.1555 C.ar    1  UNL1        0.0967
     23 N         139.7960  141.5523  166.5571 N.pl3   1  UNL1       -0.2052
     24 H         138.9536  141.4208  167.0493 H       1  UNL1        0.1748
     25 S         141.0145  140.7615  166.9312 S.O2    1  UNL1        0.1130
     26 O         140.3477  139.5067  166.4508 O.2     1  UNL1       -0.1379
     27 O         141.6813  142.0163  167.4116 O.2     1  UNL1       -0.1379
     28 N         142.2331  139.9708  167.3053 N.3     1  UNL1       -0.1428
     29 C         141.6725  139.4782  169.7939 C.3     1  UNL1        0.0207
     30 C         142.6601  139.8851  168.7407 C.3     1  UNL1        0.0972
     31 C         143.0247  139.2658  166.2440 C.3     1  UNL1        0.0972
     32 C         143.7992  138.0272  166.5844 C.3     1  UNL1        0.0207
@<TRIPOS>BOND
     1    29    30    1
     2    30    28    1
     3    28    31    1
     4    31    32    1
     5    28    25    1
     6    25    26    2
     7    25    27    2
     8    25    23    1
     9    23     1    1
    10     1     2   ar
    11     2     3   ar
    12     3     4   ar
    13     4     5   ar
    14     5     6   ar
    15     6     7   ar
    16     7     8   ar
    17     8     9   ar
    18     9    10   ar
    19    10    17    1
    20    17    18   ar
    21    18    19   ar
    22    19    20   ar
    23    20    21    1
    24    20    22   ar
    25    10    11   ar
    26    11    12   ar
    27    12    13   ar
    28    13    14    2
    29    13    15   ar
    30    15    16   ar
    31    16     1   ar
    32    15     4   ar
    33    12     7   ar
    34    22    17   ar
    35    23    24    1
@<TRIPOS>MOLECULE
*****
 32 35 0 0 0
SMALL
GASTEIGER

@<TRIPOS>ATOM
      1 C         140.7606  141.6983  165.6784 C.ar    1  UNL1        0.0659
      2 C         139.9314  142.9318  165.8810 C.ar    1  UNL1        0.0159
      3 C         139.8285  143.9541  164.7882 C.ar    1  UNL1        0.0014
      4 C         140.5548  143.7431  163.4929 C.ar    1  UNL1        0.0032
      5 C         140.3191  144.8783  162.5412 C.ar    1  UNL1        0.0016
      6 C         140.8545  145.0605  161.1519 C.ar    1  UNL1        0.0192
      7 C         141.7578  144.1524  160.3711 C.ar    1  UNL1        0.0844
      8 N         142.0547  144.7117  159.0113 N.ar    1  UNL1       -0.2437
      9 C         142.9425  143.9565  158.0672 C.ar    1  UNL1        0.0989
     10 C         143.5335  142.6419  158.4830 C.ar    1  UNL1        0.0223
     11 C         143.2366  142.0827  159.8427 C.ar    1  UNL1        0.0063
     12 C         142.3487  142.8379  160.7868 C.ar    1  UNL1        0.0566
     13 C         142.1823  142.1068  162.0860 C.ar    1  UNL1        0.1970
     14 O         142.9107  140.8001  162.1953 O.2     1  UNL1       -0.2865
     15 C         141.3840  142.5097  163.2903 C.ar    1  UNL1        0.0403
     16 C         141.4869  141.4873  164.3831 C.ar    1  UNL1        0.0191
     17 C         144.4213  141.8867  157.5389 C.ar    1  UNL1        0.0411
     18 C         144.2280  140.4683  157.0909 C.ar    1  UNL1        0.1217
     19 N         145.3456  140.1222  156.1522 N.ar    1  UNL1       -0.1676
     20 N         146.2297  141.3267  156.0200 N.ar    1  UNL1       -0.2473
     21 C         147.4676  141.4237  155.1786 C.3     1  UNL1        0.1538
     22 C         145.6584  142.4172  156.8771 C.ar    1  UNL1        0.0967
     23 N         140.8636  140.6760  166.7712 N.pl3   1  UNL1       -0.2052
     24 H         140.6868  139.7273  166.5760 H       1  UNL1        0.1748
     25 S         141.2357  141.0990  168.1614 S.O2    1  UNL1        0.1130
     26 O         142.5802  141.5432  167.6663 O.2     1  UNL1       -0.1379
     27 O         139.8913  140.6547  168.6565 O.2     1  UNL1       -0.1379
     28 N         141.6079  141.5219  169.5516 N.3     1  UNL1       -0.1428
     29 C         140.5137  143.8627  169.8229 C.3     1  UNL1        0.0207
     30 C         141.7245  142.9795  169.8862 C.3     1  UNL1        0.0972
     31 C         141.8635  140.4873  170.6072 C.3     1  UNL1        0.0972
     32 C         142.6715  139.2665  170.2807 C.3     1  UNL1        0.0207
@<TRIPOS>BOND
     1    29    30    1
     2    30    28    1
     3    28    31    1
     4    31    32    1
     5    28    25    1
     6    25    26    2
     7    25    27    2
     8    25    23    1
     9    23     1    1
    10     1     2   ar
    11     2     3   ar
    12     3     4   ar
    13     4     5   ar
    14     5     6   ar
    15     6     7   ar
    16     7     8   ar
    17     8     9   ar
    18     9    10   ar
    19    10    17    1
    20    17    18   ar
    21    18    19   ar
    22    19    20   ar
    23    20    21    1
    24    20    22   ar
    25    10    11   ar
    26    11    12   ar
    27    12    13   ar
    28    13    14    2
    29    13    15   ar
    30    15    16   ar
    31    16     1   ar
    32    15     4   ar
    33    12     7   ar
    34    22    17   ar
    35    23    24    1
@<TRIPOS>MOLECULE
*****
 32 35 0 0 0
SMALL
GASTEIGER

@<TRIPOS>ATOM
      1 C         142.7988  140.1067  165.6167 C.ar    1  UNL1        0.0659
      2 C         143.4336  141.4656  165.6347 C.ar    1  UNL1        0.0159
      3 C         143.8690  142.1070  164.3505 C.ar    1  UNL1        0.0014
      4 C         143.6697  141.3896  163.0485 C.ar    1  UNL1        0.0032
      5 C         144.1720  142.2025  161.8923 C.ar    1  UNL1        0.0016
      6 C         144.1637  141.8573  160.4326 C.ar    1  UNL1        0.0192
      7 C         143.6509  140.6139  159.7685 C.ar    1  UNL1        0.0844
      8 N         143.8343  140.6717  158.2809 N.ar    1  UNL1       -0.2437
      9 C         143.3866  139.5241  157.4249 C.ar    1  UNL1        0.0989
     10 C         142.7555  138.3188  158.0566 C.ar    1  UNL1        0.0223
     11 C         142.5722  138.2610  159.5442 C.ar    1  UNL1        0.0063
     12 C         143.0199  139.4086  160.4001 C.ar    1  UNL1        0.0566
     13 C         142.7457  139.1490  161.8519 C.ar    1  UNL1        0.1970
     14 O         142.0965  137.8339  162.1666 O.2     1  UNL1       -0.2865
     15 C         143.0349  140.0307  163.0305 C.ar    1  UNL1        0.0403
     16 C         142.5995  139.3892  164.3146 C.ar    1  UNL1        0.0191
     17 C         142.3078  137.1712  157.2006 C.ar    1  UNL1        0.0411
     18 C         141.1931  137.2019  156.1975 C.ar    1  UNL1        0.1217
     19 N         141.0926  135.8411  155.5744 N.ar    1  UNL1       -0.1676
     20 N         142.1453  134.9694  156.1924 N.ar    1  UNL1       -0.2473
     21 C         142.4018  133.5287  155.8632 C.3     1  UNL1        0.1538
     22 C         142.8963  135.7915  157.1975 C.ar    1  UNL1        0.0967
     23 N         142.3634  139.4653  166.9008 N.pl3   1  UNL1       -0.2052
     24 H         142.4261  138.4888  167.0093 H       1  UNL1        0.1748
     25 S         141.8323  140.3116  168.0196 S.O2    1  UNL1        0.1130
     26 O         140.6557  140.6943  167.1716 O.2     1  UNL1       -0.1379
     27 O         143.0089  139.9289  168.8676 O.2     1  UNL1       -0.1379
     28 N         141.3012  141.1579  169.1384 N.3     1  UNL1       -0.1428
     29 C         138.9746  140.3756  169.9898 C.3     1  UNL1        0.0207
     30 C         140.4497  140.5398  170.2074 C.3     1  UNL1        0.0972
     31 C         141.6218  142.6224  169.1882 C.3     1  UNL1        0.0972
     32 C         140.5803  143.6032  169.6390 C.3     1  UNL1        0.0207
@<TRIPOS>BOND
     1    29    30    1
     2    30    28    1
     3    28    31    1
     4    31    32    1
     5    28    25    1
     6    25    26    2
     7    25    27    2
     8    25    23    1
     9    23     1    1
    10     1     2   ar
    11     2     3   ar
    12     3     4   ar
    13     4     5   ar
    14     5     6   ar
    15     6     7   ar
    16     7     8   ar
    17     8     9   ar
    18     9    10   ar
    19    10    17    1
    20    17    18   ar
    21    18    19   ar
    22    19    20   ar
    23    20    21    1
    24    20    22   ar
    25    10    11   ar
    26    11    12   ar
    27    12    13   ar
    28    13    14    2
    29    13    15   ar
    30    15    16   ar
    31    16     1   ar
    32    15     4   ar
    33    12     7   ar
    34    22    17   ar
    35    23    24    1
@<TRIPOS>MOLECULE
*****
 32 35 0 0 0
SMALL
GASTEIGER

@<TRIPOS>ATOM
      1 C         142.1929  141.4564  163.2050 C.ar    1  UNL1        0.0659
      2 C         142.8009  142.7502  162.7509 C.ar    1  UNL1        0.0159
      3 C         143.3512  142.8734  161.3609 C.ar    1  UNL1        0.0014
      4 C         143.2935  141.7026  160.4250 C.ar    1  UNL1        0.0032
      5 C         143.8950  142.0365  159.0921 C.ar    1  UNL1        0.0016
      6 C         144.0370  141.1588  157.8839 C.ar    1  UNL1        0.0192
      7 C         143.6126  139.7306  157.7104 C.ar    1  UNL1        0.0844
      8 N         143.9417  139.2242  156.3373 N.ar    1  UNL1       -0.2437
      9 C         143.5996  137.8144  155.9560 C.ar    1  UNL1        0.0989
     10 C         142.9284  136.9110  156.9478 C.ar    1  UNL1        0.0223
     11 C         142.5993  137.4175  158.3207 C.ar    1  UNL1        0.0063
     12 C         142.9415  138.8273  158.7020 C.ar    1  UNL1        0.0566
     13 C         142.5289  139.1291  160.1123 C.ar    1  UNL1        0.1970
     14 O         141.8729  138.0022  160.8537 O.2     1  UNL1       -0.2865
     15 C         142.6856  140.4088  160.8791 C.ar    1  UNL1        0.0403
     16 C         142.1353  140.2856  162.2691 C.ar    1  UNL1        0.0191
     17 C         142.5863  135.5012  156.5665 C.ar    1  UNL1        0.0411
     18 C         141.5637  135.0860  155.5507 C.ar    1  UNL1        0.1217
     19 N         141.5521  133.5872  155.4904 N.ar    1  UNL1       -0.1676
     20 N         142.5676  133.0762  156.4690 N.ar    1  UNL1       -0.2473
     21 C         142.8877  131.6352  156.7356 C.3     1  UNL1        0.1538
     22 C         143.2067  134.2591  157.1340 C.ar    1  UNL1        0.0967
     23 N         141.6427  141.3332  164.5949 N.pl3   1  UNL1       -0.2052
     24 H         141.9463  141.9486  165.3009 H       1  UNL1        0.1748
     25 S         140.6297  140.2726  164.9093 S.O2    1  UNL1        0.1130
     26 O         141.7067  139.4244  165.5180 O.2     1  UNL1       -0.1379
     27 O         139.5527  141.1208  164.3006 O.2     1  UNL1       -0.1379
     28 N         139.6166  139.2119  165.2237 N.3     1  UNL1       -0.1428
     29 C         137.7425  138.3446  166.8002 C.3     1  UNL1        0.0207
     30 C         138.5345  139.4821  166.2266 C.3     1  UNL1        0.0972
     31 C         139.6858  137.8811  164.5351 C.3     1  UNL1        0.0972
     32 C         139.1557  137.7301  163.1400 C.3     1  UNL1        0.0207
@<TRIPOS>BOND
     1    29    30    1
     2    30    28    1
     3    28    31    1
     4    31    32    1
     5    28    25    1
     6    25    26    2
     7    25    27    2
     8    25    23    1
     9    23     1    1
    10     1     2   ar
    11     2     3   ar
    12     3     4   ar
    13     4     5   ar
    14     5     6   ar
    15     6     7   ar
    16     7     8   ar
    17     8     9   ar
    18     9    10   ar
    19    10    17    1
    20    17    18   ar
    21    18    19   ar
    22    19    20   ar
    23    20    21    1
    24    20    22   ar
    25    10    11   ar
    26    11    12   ar
    27    12    13   ar
    28    13    14    2
    29    13    15   ar
    30    15    16   ar
    31    16     1   ar
    32    15     4   ar
    33    12     7   ar
    34    22    17   ar
    35    23    24    1
@<TRIPOS>MOLECULE
*****
 32 35 0 0 0
SMALL
GASTEIGER

@<TRIPOS>ATOM
      1 C         140.1589  142.3570  165.3254 C.ar    1  UNL1        0.0659
      2 C         139.3382  143.5915  165.5542 C.ar    1  UNL1        0.0159
      3 C         139.2543  144.6445  164.4892 C.ar    1  UNL1        0.0014
      4 C         139.9912  144.4630  163.1954 C.ar    1  UNL1        0.0032
      5 C         139.7742  145.6260  162.2733 C.ar    1  UNL1        0.0016
      6 C         140.3244  145.8418  160.8946 C.ar    1  UNL1        0.0192
      7 C         141.2275  144.9479  160.0976 C.ar    1  UNL1        0.0844
      8 N         141.5421  145.5419  158.7566 N.ar    1  UNL1       -0.2437
      9 C         142.4326  144.8053  157.8003 C.ar    1  UNL1        0.0989
     10 C         143.0085  143.4748  158.1851 C.ar    1  UNL1        0.0223
     11 C         142.6939  142.8808  159.5260 C.ar    1  UNL1        0.0063
     12 C         141.8034  143.6174  160.4822 C.ar    1  UNL1        0.0566
     13 C         141.6184  142.8522  161.7591 C.ar    1  UNL1        0.1970
     14 O         142.3347  141.5367  161.8390 O.2     1  UNL1       -0.2865
     15 C         140.8119  143.2285  162.9665 C.ar    1  UNL1        0.0403
     16 C         140.8958  142.1755  164.0315 C.ar    1  UNL1        0.0191
     17 C         143.8991  142.7382  157.2288 C.ar    1  UNL1        0.0411
     18 C         144.9847  141.7723  157.6008 C.ar    1  UNL1        0.1217
     19 N         145.6169  141.2753  156.3345 N.ar    1  UNL1       -0.1676
     20 N         144.9220  141.9341  155.1799 N.ar    1  UNL1       -0.2473
     21 C         145.2340  141.7255  153.7277 C.3     1  UNL1        0.1538
     22 C         143.8603  142.8382  155.7327 C.ar    1  UNL1        0.0967
     23 N         140.2428  141.3041  166.3904 N.pl3   1  UNL1       -0.2052
     24 H         139.8456  140.4164  166.2373 H       1  UNL1        0.1748
     25 S         140.9318  141.6036  167.6886 S.O2    1  UNL1        0.1130
     26 O         139.7293  141.1140  168.4398 O.2     1  UNL1       -0.1379
     27 O         142.1343  142.0933  166.9375 O.2     1  UNL1       -0.1379
     28 N         141.6208  141.9032  168.9869 N.3     1  UNL1       -0.1428
     29 C         143.9668  142.4079  169.9829 C.3     1  UNL1        0.0207
     30 C         143.0601  141.5258  169.1767 C.3     1  UNL1        0.0972
     31 C         140.8706  142.5803  170.0954 C.3     1  UNL1        0.0972
     32 C         140.4569  144.0151  169.9539 C.3     1  UNL1        0.0207
@<TRIPOS>BOND
     1    29    30    1
     2    30    28    1
     3    28    31    1
     4    31    32    1
     5    28    25    1
     6    25    26    2
     7    25    27    2
     8    25    23    1
     9    23     1    1
    10     1     2   ar
    11     2     3   ar
    12     3     4   ar
    13     4     5   ar
    14     5     6   ar
    15     6     7   ar
    16     7     8   ar
    17     8     9   ar
    18     9    10   ar
    19    10    17    1
    20    17    18   ar
    21    18    19   ar
    22    19    20   ar
    23    20    21    1
    24    20    22   ar
    25    10    11   ar
    26    11    12   ar
    27    12    13   ar
    28    13    14    2
    29    13    15   ar
    30    15    16   ar
    31    16     1   ar
    32    15     4   ar
    33    12     7   ar
    34    22    17   ar
    35    23    24    1
@<TRIPOS>MOLECULE
*****
 32 35 0 0 0
SMALL
GASTEIGER

@<TRIPOS>ATOM
      1 C         139.3619  142.6115  159.3602 C.ar    1  UNL1        0.0659
      2 C         140.2345  143.7370  158.8894 C.ar    1  UNL1        0.0159
      3 C         141.4470  143.4475  158.0551 C.ar    1  UNL1        0.0014
      4 C         141.7870  142.0325  157.6917 C.ar    1  UNL1        0.0032
      5 C         143.0318  141.9649  156.8576 C.ar    1  UNL1        0.0016
      6 C         143.7115  140.7550  156.2882 C.ar    1  UNL1        0.0192
      7 C         143.3142  139.3139  156.4124 C.ar    1  UNL1        0.0844
      8 N         144.2732  138.4166  155.6876 N.ar    1  UNL1       -0.2437
      9 C         144.0572  136.9323  155.6871 C.ar    1  UNL1        0.0989
     10 C         142.8821  136.3452  156.4114 C.ar    1  UNL1        0.0223
     11 C         141.9231  137.2424  157.1361 C.ar    1  UNL1        0.0063
     12 C         142.1391  138.7267  157.1366 C.ar    1  UNL1        0.0566
     13 C         141.0711  139.4358  157.9155 C.ar    1  UNL1        0.1970
     14 O         140.0210  138.5574  158.5284 O.2     1  UNL1       -0.2865
     15 C         140.9144  140.9070  158.1626 C.ar    1  UNL1        0.0403
     16 C         139.7019  141.1965  158.9968 C.ar    1  UNL1        0.0191
     17 C         142.6660  134.8608  156.4109 C.ar    1  UNL1        0.0411
     18 C         143.2484  133.8848  157.3897 C.ar    1  UNL1        0.1217
     19 N         142.7719  132.5126  157.0153 N.ar    1  UNL1       -0.1676
     20 N         141.8951  132.6406  155.8050 N.ar    1  UNL1       -0.2473
     21 C         141.2050  131.5150  155.0932 C.3     1  UNL1        0.1538
     22 C         141.8297  134.0919  155.4315 C.ar    1  UNL1        0.0967
     23 N         138.1494  142.9010  160.1945 N.pl3   1  UNL1       -0.2052
     24 H         137.2892  143.1016  159.7597 H       1  UNL1        0.1748
     25 S         138.2475  142.8847  161.6912 S.O2    1  UNL1        0.1130
     26 O         138.8896  144.2400  161.6638 O.2     1  UNL1       -0.1379
     27 O         137.6053  141.5294  161.7185 O.2     1  UNL1       -0.1379
     28 N         138.3455  142.8684  163.1879 N.3     1  UNL1       -0.1428
     29 C         138.6246  144.6484  165.0598 C.3     1  UNL1        0.0207
     30 C         137.7915  144.0096  163.9883 C.3     1  UNL1        0.0972
     31 C         138.9976  141.7109  163.8842 C.3     1  UNL1        0.0972
     32 C         138.2638  140.9770  164.9672 C.3     1  UNL1        0.0207
@<TRIPOS>BOND
     1    29    30    1
     2    30    28    1
     3    28    31    1
     4    31    32    1
     5    28    25    1
     6    25    26    2
     7    25    27    2
     8    25    23    1
     9    23     1    1
    10     1     2   ar
    11     2     3   ar
    12     3     4   ar
    13     4     5   ar
    14     5     6   ar
    15     6     7   ar
    16     7     8   ar
    17     8     9   ar
    18     9    10   ar
    19    10    17    1
    20    17    18   ar
    21    18    19   ar
    22    19    20   ar
    23    20    21    1
    24    20    22   ar
    25    10    11   ar
    26    11    12   ar
    27    12    13   ar
    28    13    14    2
    29    13    15   ar
    30    15    16   ar
    31    16     1   ar
    32    15     4   ar
    33    12     7   ar
    34    22    17   ar
    35    23    24    1
