@<TRIPOS>MOLECULE
*****
 28 31 0 0 0
SMALL
GASTEIGER

@<TRIPOS>ATOM
      1 N         140.0199  139.5950  165.0344 N.3     1  UNL1       -0.2727
      2 C         140.0790  138.8653  163.7252 C.3     1  UNL1        0.0613
      3 C         139.1925  137.6595  163.8260 C.3     1  UNL1        0.0175
      4 C         138.5856  137.6439  165.1977 C.3     1  UNL1        0.0175
      5 C         139.0969  138.8400  165.9445 C.3     1  UNL1        0.0613
      6 C         139.7625  140.1010  166.4404 C.3     1  UNL1        0.0595
      7 C         140.6556  140.7460  165.4223 C.3     1  UNL1        0.1686
      8 C         140.8138  140.1281  164.0647 C.3     1  UNL1        0.0595
      9 C         142.0481  140.7925  166.1309 C.3     1  UNL1        0.0222
     10 C         140.7547  140.8578  165.3740 C.3     1  UNL1        0.0801
     11 C         140.1962  142.1858  164.9566 C.ar    1  UNL1       -0.0078
     12 C         138.7240  142.4498  165.0709 C.ar    1  UNL1       -0.0030
     13 C         138.1655  143.7779  164.6535 C.ar    1  UNL1       -0.0003
     14 C         139.0791  144.8421  164.1218 C.ar    1  UNL1       -0.0000
     15 C         140.5513  144.5781  164.0074 C.ar    1  UNL1       -0.0003
     16 C         141.1099  143.2501  164.4248 C.ar    1  UNL1       -0.0030
     17 O         141.3905  142.0089  165.7620 O.3     1  UNL1       -0.4791
     18 C         141.7283  142.3191  167.1902 C.ar    1  UNL1        0.1385
     19 C         143.0967  142.0104  167.7212 C.ar    1  UNL1        0.0369
     20 C         143.4345  142.3206  169.1493 C.ar    1  UNL1        0.0033
     21 C         142.4039  142.9394  170.0464 C.ar    1  UNL1        0.0047
     22 C         141.0355  143.2481  169.5153 C.ar    1  UNL1        0.0561
     23 C         140.6976  142.9379  168.0872 C.ar    1  UNL1        0.0414
     24 C         140.0048  143.8670  170.4124 C.2     1  UNL1        0.2428
     25 N         139.1381  142.9953  171.2722 N.am    1  UNL1       -0.3253
     26 O         139.8408  145.3576  170.4499 O.2     1  UNL1       -0.2704
     27 H         139.2457  142.0170  171.2476 H       1  UNL1        0.1453
     28 H         138.4617  143.4015  171.8610 H       1  UNL1        0.1453
@<TRIPOS>BOND
     1    10     9    1
     2    10    11    1
     3    11    12   ar
     4    12    13   ar
     5    13    14   ar
     6    14    15   ar
     7    15    16   ar
     8    10     1    1
     9     1     2    1
    10     2     3    1
    11     3     4    1
    12     5     4    1
    13     5     6    1
    14     6     7    1
    15     7    17    1
    16    17    18    1
    17    18    19   ar
    18    19    20   ar
    19    20    21   ar
    20    21    22   ar
    21    22    24    1
    22    24    25   am
    23    24    26    2
    24    22    23   ar
    25     7     8    1
    26    16    11   ar
    27     5     1    1
    28    23    18   ar
    29     8     2    1
    30    25    27    1
    31    25    28    1
@<TRIPOS>MOLECULE
*****
 28 31 0 0 0
SMALL
GASTEIGER

@<TRIPOS>ATOM
      1 N         142.8983  141.4514  164.3467 N.3     1  UNL1       -0.2727
      2 C         143.3374  140.8797  163.0313 C.3     1  UNL1        0.0613
      3 C         144.7774  141.2451  162.8245 C.3     1  UNL1        0.0175
      4 C         145.2283  142.0427  164.0121 C.3     1  UNL1        0.0175
      5 C         144.0670  142.1702  164.9529 C.3     1  UNL1        0.0613
      6 C         142.7509  142.1360  165.6916 C.3     1  UNL1        0.0595
      7 C         141.6765  141.3826  164.9648 C.3     1  UNL1        0.1686
      8 C         141.9698  140.7545  163.6346 C.3     1  UNL1        0.0595
      9 C         141.2358  140.2174  165.9163 C.3     1  UNL1        0.0222
     10 C         141.5307  141.3262  164.9500 C.3     1  UNL1        0.0801
     11 C         140.4580  142.3098  164.5871 C.ar    1  UNL1       -0.0078
     12 C         139.0981  141.8217  164.1837 C.ar    1  UNL1       -0.0030
     13 C         138.0255  142.8054  163.8208 C.ar    1  UNL1       -0.0003
     14 C         138.3125  144.2771  163.8611 C.ar    1  UNL1       -0.0000
     15 C         139.6724  144.7652  164.2644 C.ar    1  UNL1       -0.0003
     16 C         140.7451  143.7815  164.6274 C.ar    1  UNL1       -0.0030
     17 O         140.3089  141.2575  165.5681 O.3     1  UNL1       -0.4791
     18 C         140.1403  141.2945  167.0582 C.ar    1  UNL1        0.1385
     19 C         139.5028  140.1381  167.7698 C.ar    1  UNL1        0.0369
     20 C         139.3342  140.1751  169.2597 C.ar    1  UNL1        0.0033
     21 C         139.8031  141.3685  170.0382 C.ar    1  UNL1        0.0047
     22 C         140.4405  142.5249  169.3266 C.ar    1  UNL1        0.0561
     23 C         140.6091  142.4879  167.8365 C.ar    1  UNL1        0.0414
     24 C         140.9093  143.7183  170.1050 C.2     1  UNL1        0.2428
     25 N         142.2895  143.7356  170.6925 N.am    1  UNL1       -0.3253
     26 O         139.9980  144.8944  170.2961 O.2     1  UNL1       -0.2704
     27 H         142.8876  142.9637  170.5671 H       1  UNL1        0.1453
     28 H         142.5972  144.5189  171.2034 H       1  UNL1        0.1453
@<TRIPOS>BOND
     1    10     9    1
     2    10    11    1
     3    11    12   ar
     4    12    13   ar
     5    13    14   ar
     6    14    15   ar
     7    15    16   ar
     8    10     1    1
     9     1     2    1
    10     2     3    1
    11     3     4    1
    12     5     4    1
    13     5     6    1
    14     6     7    1
    15     7    17    1
    16    17    18    1
    17    18    19   ar
    18    19    20   ar
    19    20    21   ar
    20    21    22   ar
    21    22    24    1
    22    24    25   am
    23    24    26    2
    24    22    23   ar
    25     7     8    1
    26    16    11   ar
    27     5     1    1
    28    23    18   ar
    29     8     2    1
    30    25    27    1
    31    25    28    1
@<TRIPOS>MOLECULE
*****
 28 31 0 0 0
SMALL
GASTEIGER

@<TRIPOS>ATOM
      1 N         140.0741  142.2996  164.9014 N.3     1  UNL1       -0.2727
      2 C         139.2706  142.0433  163.6609 C.3     1  UNL1        0.0613
      3 C         138.2834  143.1624  163.5085 C.3     1  UNL1        0.0175
      4 C         138.4768  144.1103  164.6549 C.3     1  UNL1        0.0175
      5 C         139.5834  143.5771  165.5157 C.3     1  UNL1        0.0613
      6 C         140.7062  142.8165  166.1790 C.3     1  UNL1        0.0595
      7 C         141.0892  141.5613  165.4526 C.3     1  UNL1        0.1686
      8 C         140.3714  141.1747  164.1935 C.3     1  UNL1        0.0595
      9 C         140.8666  140.3622  166.4404 C.3     1  UNL1        0.0222
     10 C         141.1749  141.4310  165.4340 C.3     1  UNL1        0.0801
     11 C         142.5839  141.6311  164.9602 C.ar    1  UNL1       -0.0078
     12 C         143.1662  143.0123  164.9005 C.ar    1  UNL1       -0.0030
     13 C         144.5753  143.2123  164.4267 C.ar    1  UNL1       -0.0003
     14 C         145.4021  142.0314  164.0127 C.ar    1  UNL1       -0.0000
     15 C         144.8199  140.6502  164.0724 C.ar    1  UNL1       -0.0003
     16 C         143.4108  140.4501  164.5462 C.ar    1  UNL1       -0.0030
     17 O         142.1901  140.6926  165.9853 O.3     1  UNL1       -0.4791
     18 C         142.4597  140.6435  167.4600 C.ar    1  UNL1        0.1385
     19 C         142.1131  139.4134  168.2453 C.ar    1  UNL1        0.0369
     20 C         142.3827  139.3643  169.7199 C.ar    1  UNL1        0.0033
     21 C         142.9988  140.5453  170.4095 C.ar    1  UNL1        0.0047
     22 C         143.3453  141.7755  169.6243 C.ar    1  UNL1        0.0561
     23 C         143.0758  141.8246  168.1495 C.ar    1  UNL1        0.0414
     24 C         143.9614  142.9565  170.3139 C.2     1  UNL1        0.2428
     25 N         143.1195  143.8378  171.1883 N.am    1  UNL1       -0.3253
     26 O         145.4196  143.2564  170.1290 O.2     1  UNL1       -0.2704
     27 H         142.1625  143.6410  171.3096 H       1  UNL1        0.1453
     28 H         143.5239  144.6129  171.6409 H       1  UNL1        0.1453
@<TRIPOS>BOND
     1    10     9    1
     2    10    11    1
     3    11    12   ar
     4    12    13   ar
     5    13    14   ar
     6    14    15   ar
     7    15    16   ar
     8    10     1    1
     9     1     2    1
    10     2     3    1
    11     3     4    1
    12     5     4    1
    13     5     6    1
    14     6     7    1
    15     7    17    1
    16    17    18    1
    17    18    19   ar
    18    19    20   ar
    19    20    21   ar
    20    21    22   ar
    21    22    24    1
    22    24    25   am
    23    24    26    2
    24    22    23   ar
    25     7     8    1
    26    16    11   ar
    27     5     1    1
    28    23    18   ar
    29     8     2    1
    30    25    27    1
    31    25    28    1
@<TRIPOS>MOLECULE
*****
 28 31 0 0 0
SMALL
GASTEIGER

@<TRIPOS>ATOM
      1 N         139.1421  139.1324  163.6925 N.3     1  UNL1       -0.2727
      2 C         138.8067  137.9063  162.8962 C.3     1  UNL1        0.0613
      3 C         137.8980  138.3158  161.7752 C.3     1  UNL1        0.0175
      4 C         137.6719  139.7951  161.8787 C.3     1  UNL1        0.0175
      5 C         138.4407  140.2997  163.0637 C.3     1  UNL1        0.0613
      6 C         139.2969  140.5184  164.2878 C.3     1  UNL1        0.0595
      7 C         139.9337  139.2623  164.8043 C.3     1  UNL1        0.1686
      8 C         139.6886  137.9563  164.1085 C.3     1  UNL1        0.0595
      9 C         139.4202  139.1003  166.2755 C.3     1  UNL1        0.0222
     10 C         140.0240  139.1824  164.9048 C.3     1  UNL1        0.0801
     11 C         141.5098  139.3144  164.7465 C.ar    1  UNL1       -0.0078
     12 C         142.0745  140.2613  163.7293 C.ar    1  UNL1       -0.0030
     13 C         143.5603  140.3933  163.5710 C.ar    1  UNL1       -0.0003
     14 C         144.4814  139.5785  164.4297 C.ar    1  UNL1       -0.0000
     15 C         143.9167  138.6316  165.4469 C.ar    1  UNL1       -0.0003
     16 C         142.4309  138.4995  165.6053 C.ar    1  UNL1       -0.0030
     17 O         140.8157  139.3124  166.0166 O.3     1  UNL1       -0.4791
     18 C         140.6610  140.4246  167.0112 C.ar    1  UNL1        0.1385
     19 C         140.6101  141.8484  166.5422 C.ar    1  UNL1        0.0369
     20 C         140.4555  142.9605  167.5367 C.ar    1  UNL1        0.0033
     21 C         140.3517  142.6489  169.0003 C.ar    1  UNL1        0.0047
     22 C         140.4026  141.2250  169.4693 C.ar    1  UNL1        0.0561
     23 C         140.5573  140.1128  168.4747 C.ar    1  UNL1        0.0414
     24 C         140.2989  140.9133  170.9329 C.2     1  UNL1        0.2428
     25 N         139.9176  139.5334  171.3807 N.am    1  UNL1       -0.3253
     26 O         140.5764  141.9816  171.9487 O.2     1  UNL1       -0.2704
     27 H         139.7354  138.8323  170.7140 H       1  UNL1        0.1453
     28 H         139.8495  139.3289  172.3413 H       1  UNL1        0.1453
@<TRIPOS>BOND
     1    10     9    1
     2    10    11    1
     3    11    12   ar
     4    12    13   ar
     5    13    14   ar
     6    14    15   ar
     7    15    16   ar
     8    10     1    1
     9     1     2    1
    10     2     3    1
    11     3     4    1
    12     5     4    1
    13     5     6    1
    14     6     7    1
    15     7    17    1
    16    17    18    1
    17    18    19   ar
    18    19    20   ar
    19    20    21   ar
    20    21    22   ar
    21    22    24    1
    22    24    25   am
    23    24    26    2
    24    22    23   ar
    25     7     8    1
    26    16    11   ar
    27     5     1    1
    28    23    18   ar
    29     8     2    1
    30    25    27    1
    31    25    28    1
@<TRIPOS>MOLECULE
*****
 28 31 0 0 0
SMALL
GASTEIGER

@<TRIPOS>ATOM
      1 N         140.2989  143.2106  163.8892 N.3     1  UNL1       -0.2727
      2 C         140.7639  143.3215  162.4674 C.3     1  UNL1        0.0613
      3 C         139.9571  144.3944  161.7981 C.3     1  UNL1        0.0175
      4 C         138.9934  144.9465  162.8062 C.3     1  UNL1        0.0175
      5 C         139.2046  144.2150  164.0986 C.3     1  UNL1        0.0613
      6 C         139.6299  143.3293  165.2448 C.3     1  UNL1        0.0595
      7 C         140.7322  142.3767  164.8874 C.3     1  UNL1        0.1686
      8 C         141.2992  142.3729  163.4987 C.3     1  UNL1        0.0595
      9 C         142.0076  142.6581  165.7667 C.3     1  UNL1        0.0222
     10 C         140.8341  142.2620  164.9205 C.3     1  UNL1        0.0801
     11 C         140.1959  140.9172  165.1055 C.ar    1  UNL1       -0.0078
     12 C         138.7781  140.8196  165.5857 C.ar    1  UNL1       -0.0030
     13 C         138.1399  139.4748  165.7707 C.ar    1  UNL1       -0.0003
     14 C         138.9193  138.2277  165.4757 C.ar    1  UNL1       -0.0000
     15 C         140.3371  138.3253  164.9955 C.ar    1  UNL1       -0.0003
     16 C         140.9753  139.6701  164.8105 C.ar    1  UNL1       -0.0030
     17 O         141.2674  141.4281  165.9187 O.3     1  UNL1       -0.4791
     18 C         141.6716  141.9391  167.2698 C.ar    1  UNL1        0.1385
     19 C         143.0864  141.7760  167.7409 C.ar    1  UNL1        0.0369
     20 C         143.4906  142.2870  169.0919 C.ar    1  UNL1        0.0033
     21 C         142.4801  142.9612  169.9719 C.ar    1  UNL1        0.0047
     22 C         141.0654  143.1243  169.5009 C.ar    1  UNL1        0.0561
     23 C         140.6611  142.6132  168.1498 C.ar    1  UNL1        0.0414
     24 C         140.0549  143.7984  170.3809 C.2     1  UNL1        0.2428
     25 N         139.1696  142.9778  171.2714 N.am    1  UNL1       -0.3253
     26 O         139.9297  145.2932  170.3705 O.2     1  UNL1       -0.2704
     27 H         139.2518  141.9968  171.2782 H       1  UNL1        0.1453
     28 H         138.5064  143.4203  171.8490 H       1  UNL1        0.1453
@<TRIPOS>BOND
     1    10     9    1
     2    10    11    1
     3    11    12   ar
     4    12    13   ar
     5    13    14   ar
     6    14    15   ar
     7    15    16   ar
     8    10     1    1
     9     1     2    1
    10     2     3    1
    11     3     4    1
    12     5     4    1
    13     5     6    1
    14     6     7    1
    15     7    17    1
    16    17    18    1
    17    18    19   ar
    18    19    20   ar
    19    20    21   ar
    20    21    22   ar
    21    22    24    1
    22    24    25   am
    23    24    26    2
    24    22    23   ar
    25     7     8    1
    26    16    11   ar
    27     5     1    1
    28    23    18   ar
    29     8     2    1
    30    25    27    1
    31    25    28    1
@<TRIPOS>MOLECULE
*****
 28 31 0 0 0
SMALL
GASTEIGER

@<TRIPOS>ATOM
      1 N         139.7222  139.5706  164.0891 N.3     1  UNL1       -0.2727
      2 C         138.5504  138.8996  163.4359 C.3     1  UNL1        0.0613
      3 C         139.0771  137.8333  162.5218 C.3     1  UNL1        0.0175
      4 C         140.5744  137.8453  162.6100 C.3     1  UNL1        0.0175
      5 C         140.9731  138.9190  163.5786 C.3     1  UNL1        0.0613
      6 C         141.0766  140.0454  164.5785 C.3     1  UNL1        0.0595
      7 C         139.7461  140.5975  164.9970 C.3     1  UNL1        0.1686
      8 C         138.4831  140.0246  164.4258 C.3     1  UNL1        0.0595
      9 C         139.6409  140.4008  166.5496 C.3     1  UNL1        0.0222
     10 C         139.6549  140.6956  165.0789 C.3     1  UNL1        0.0801
     11 C         139.6015  142.1154  164.5980 C.ar    1  UNL1       -0.0078
     12 C         140.7444  142.6840  163.8102 C.ar    1  UNL1       -0.0030
     13 C         140.6910  144.1038  163.3294 C.ar    1  UNL1       -0.0003
     14 C         139.4947  144.9551  163.6362 C.ar    1  UNL1       -0.0000
     15 C         138.3518  144.3865  164.4240 C.ar    1  UNL1       -0.0003
     16 C         138.4052  142.9667  164.9049 C.ar    1  UNL1       -0.0030
     17 O         139.6789  141.7226  165.9869 O.3     1  UNL1       -0.4791
     18 C         140.6221  141.7531  167.1529 C.ar    1  UNL1        0.1385
     19 C         142.0507  142.1634  166.9513 C.ar    1  UNL1        0.0369
     20 C         142.9939  142.1939  168.1172 C.ar    1  UNL1        0.0033
     21 C         142.5085  141.8141  169.4847 C.ar    1  UNL1        0.0047
     22 C         141.0798  141.4038  169.6863 C.ar    1  UNL1        0.0561
     23 C         140.1366  141.3733  168.5203 C.ar    1  UNL1        0.0414
     24 C         140.5944  141.0241  171.0538 C.2     1  UNL1        0.2428
     25 N         140.0632  139.6439  171.3046 N.am    1  UNL1       -0.3253
     26 O         140.6402  142.0245  172.1706 O.2     1  UNL1       -0.2704
     27 H         140.0331  138.9873  170.5717 H       1  UNL1        0.1453
     28 H         139.7446  139.3946  172.2022 H       1  UNL1        0.1453
@<TRIPOS>BOND
     1    10     9    1
     2    10    11    1
     3    11    12   ar
     4    12    13   ar
     5    13    14   ar
     6    14    15   ar
     7    15    16   ar
     8    10     1    1
     9     1     2    1
    10     2     3    1
    11     3     4    1
    12     5     4    1
    13     5     6    1
    14     6     7    1
    15     7    17    1
    16    17    18    1
    17    18    19   ar
    18    19    20   ar
    19    20    21   ar
    20    21    22   ar
    21    22    24    1
    22    24    25   am
    23    24    26    2
    24    22    23   ar
    25     7     8    1
    26    16    11   ar
    27     5     1    1
    28    23    18   ar
    29     8     2    1
    30    25    27    1
    31    25    28    1
@<TRIPOS>MOLECULE
*****
 28 31 0 0 0
SMALL
GASTEIGER

@<TRIPOS>ATOM
      1 N         141.6792  142.3557  168.3882 N.3     1  UNL1       -0.2727
      2 C         141.4003  143.1807  169.6095 C.3     1  UNL1        0.0613
      3 C         142.6412  143.1957  170.4521 C.3     1  UNL1        0.0175
      4 C         143.6869  142.3799  169.7515 C.3     1  UNL1        0.0175
      5 C         143.0924  141.8607  168.4760 C.3     1  UNL1        0.0613
      6 C         142.2468  141.4869  167.2826 C.3     1  UNL1        0.0595
      7 C         140.8586  142.0530  167.3325 C.3     1  UNL1        0.1686
      8 C         140.4353  142.9000  168.4959 C.3     1  UNL1        0.0595
      9 C         139.8426  140.8552  167.3271 C.3     1  UNL1        0.0222
     10 C         140.7142  142.0749  167.2746 C.3     1  UNL1        0.0801
     11 C         140.6208  143.0138  166.1086 C.ar    1  UNL1       -0.0078
     12 C         139.3400  143.7451  165.8352 C.ar    1  UNL1       -0.0030
     13 C         139.2467  144.6840  164.6690 C.ar    1  UNL1       -0.0003
     14 C         140.4340  144.8917  163.7764 C.ar    1  UNL1       -0.0000
     15 C         141.7149  144.1603  164.0498 C.ar    1  UNL1       -0.0003
     16 C         141.8083  143.2214  165.2159 C.ar    1  UNL1       -0.0030
     17 O         139.8936  141.7722  166.2188 O.3     1  UNL1       -0.4791
     18 C         139.8723  140.4210  165.5678 C.ar    1  UNL1        0.1385
     19 C         138.6902  139.5168  165.7550 C.ar    1  UNL1        0.0369
     20 C         138.6689  138.1657  165.1040 C.ar    1  UNL1        0.0033
     21 C         139.8297  137.7187  164.2658 C.ar    1  UNL1        0.0047
     22 C         141.0118  138.6228  164.0786 C.ar    1  UNL1        0.0561
     23 C         141.0331  139.9740  164.7297 C.ar    1  UNL1        0.0414
     24 C         142.1727  138.1758  163.2404 C.2     1  UNL1        0.2428
     25 N         141.9479  137.2541  162.0785 N.am    1  UNL1       -0.3253
     26 O         143.5584  138.6505  163.5641 O.2     1  UNL1       -0.2704
     27 H         141.0385  136.9425  161.8661 H       1  UNL1        0.1453
     28 H         142.7098  136.9607  161.5284 H       1  UNL1        0.1453
@<TRIPOS>BOND
     1    10     9    1
     2    10    11    1
     3    11    12   ar
     4    12    13   ar
     5    13    14   ar
     6    14    15   ar
     7    15    16   ar
     8    10     1    1
     9     1     2    1
    10     2     3    1
    11     3     4    1
    12     5     4    1
    13     5     6    1
    14     6     7    1
    15     7    17    1
    16    17    18    1
    17    18    19   ar
    18    19    20   ar
    19    20    21   ar
    20    21    22   ar
    21    22    24    1
    22    24    25   am
    23    24    26    2
    24    22    23   ar
    25     7     8    1
    26    16    11   ar
    27     5     1    1
    28    23    18   ar
    29     8     2    1
    30    25    27    1
    31    25    28    1
@<TRIPOS>MOLECULE
*****
 28 31 0 0 0
SMALL
GASTEIGER

@<TRIPOS>ATOM
      1 N         142.5325  143.2517  165.0908 N.3     1  UNL1       -0.2727
      2 C         143.8781  143.8799  164.8791 C.3     1  UNL1        0.0613
      3 C         143.6955  145.0822  164.0011 C.3     1  UNL1        0.0175
      4 C         142.2370  145.1972  163.6702 C.3     1  UNL1        0.0175
      5 C         141.5182  144.0659  164.3436 C.3     1  UNL1        0.0613
      6 C         141.0701  142.8522  165.1216 C.3     1  UNL1        0.0595
      7 C         142.1923  142.1391  165.8160 C.3     1  UNL1        0.1686
      8 C         143.5963  142.6530  165.6948 C.3     1  UNL1        0.0595
      9 C         142.2859  140.6710  165.2616 C.3     1  UNL1        0.0222
     10 C         142.2507  142.0249  165.9065 C.3     1  UNL1        0.0801
     11 C         141.9338  142.1518  167.3671 C.ar    1  UNL1       -0.0078
     12 C         142.8133  141.4893  168.3858 C.ar    1  UNL1       -0.0030
     13 C         142.4963  141.6163  169.8465 C.ar    1  UNL1       -0.0003
     14 C         141.3000  142.4057  170.2885 C.ar    1  UNL1       -0.0000
     15 C         140.4205  143.0683  169.2698 C.ar    1  UNL1       -0.0003
     16 C         140.7374  142.9413  167.8091 C.ar    1  UNL1       -0.0030
     17 O         141.9105  140.9122  166.6317 O.3     1  UNL1       -0.4791
     18 C         140.7602  140.0197  166.2710 C.ar    1  UNL1        0.1385
     19 C         139.5875  139.8958  167.1981 C.ar    1  UNL1        0.0369
     20 C         138.4373  139.0033  166.8374 C.ar    1  UNL1        0.0033
     21 C         138.4595  138.2347  165.5495 C.ar    1  UNL1        0.0047
     22 C         139.6322  138.3585  164.6224 C.ar    1  UNL1        0.0561
     23 C         140.7825  139.2511  164.9831 C.ar    1  UNL1        0.0414
     24 C         139.6545  137.5899  163.3345 C.2     1  UNL1        0.2428
     25 N         138.4208  137.5145  162.4846 N.am    1  UNL1       -0.3253
     26 O         140.9105  136.8965  162.8965 O.2     1  UNL1       -0.2704
     27 H         137.5964  137.9696  162.7720 H       1  UNL1        0.1453
     28 H         138.4354  137.0100  161.6393 H       1  UNL1        0.1453
@<TRIPOS>BOND
     1    10     9    1
     2    10    11    1
     3    11    12   ar
     4    12    13   ar
     5    13    14   ar
     6    14    15   ar
     7    15    16   ar
     8    10     1    1
     9     1     2    1
    10     2     3    1
    11     3     4    1
    12     5     4    1
    13     5     6    1
    14     6     7    1
    15     7    17    1
    16    17    18    1
    17    18    19   ar
    18    19    20   ar
    19    20    21   ar
    20    21    22   ar
    21    22    24    1
    22    24    25   am
    23    24    26    2
    24    22    23   ar
    25     7     8    1
    26    16    11   ar
    27     5     1    1
    28    23    18   ar
    29     8     2    1
    30    25    27    1
    31    25    28    1
@<TRIPOS>MOLECULE
*****
 28 31 0 0 0
SMALL
GASTEIGER

@<TRIPOS>ATOM
      1 N         141.6743  140.8804  168.6718 N.3     1  UNL1       -0.2727
      2 C         142.7074  140.0590  169.3846 C.3     1  UNL1        0.0613
      3 C         142.5866  140.3357  170.8539 C.3     1  UNL1        0.0175
      4 C         141.4789  141.3280  171.0492 C.3     1  UNL1        0.0175
      5 C         140.9150  141.6647  169.7006 C.3     1  UNL1        0.0613
      6 C         140.5558  141.8094  168.2415 C.3     1  UNL1        0.0595
      7 C         141.3987  140.9657  167.3316 C.3     1  UNL1        0.1686
      8 C         142.4744  140.0905  167.9032 C.3     1  UNL1        0.0595
      9 C         142.1063  141.9605  166.3487 C.3     1  UNL1        0.0222
     10 C         141.4414  140.9119  167.1904 C.3     1  UNL1        0.0801
     11 C         140.5435  139.8949  166.5505 C.ar    1  UNL1       -0.0078
     12 C         139.1168  139.7677  166.9963 C.ar    1  UNL1       -0.0030
     13 C         138.2190  138.7506  166.3564 C.ar    1  UNL1       -0.0003
     14 C         138.7477  137.8607  165.2709 C.ar    1  UNL1       -0.0000
     15 C         140.1744  137.9878  164.8252 C.ar    1  UNL1       -0.0003
     16 C         141.0722  139.0049  165.4650 C.ar    1  UNL1       -0.0030
     17 O         141.1657  140.9973  165.8500 O.3     1  UNL1       -0.4791
     18 C         140.8691  142.2984  165.1650 C.ar    1  UNL1        0.1385
     19 C         139.6430  143.0788  165.5359 C.ar    1  UNL1        0.0369
     20 C         139.3464  144.3798  164.8509 C.ar    1  UNL1        0.0033
     21 C         140.2759  144.9005  163.7951 C.ar    1  UNL1        0.0047
     22 C         141.5020  144.1201  163.4242 C.ar    1  UNL1        0.0561
     23 C         141.7986  142.8190  164.1092 C.ar    1  UNL1        0.0414
     24 C         142.4316  144.6408  162.3684 C.2     1  UNL1        0.2428
     25 N         141.8862  145.0961  161.0473 N.am    1  UNL1       -0.3253
     26 O         143.9066  144.7062  162.6336 O.2     1  UNL1       -0.2704
     27 H         140.9182  145.0531  160.8732 H       1  UNL1        0.1453
     28 H         142.4963  145.4378  160.3543 H       1  UNL1        0.1453
@<TRIPOS>BOND
     1    10     9    1
     2    10    11    1
     3    11    12   ar
     4    12    13   ar
     5    13    14   ar
     6    14    15   ar
     7    15    16   ar
     8    10     1    1
     9     1     2    1
    10     2     3    1
    11     3     4    1
    12     5     4    1
    13     5     6    1
    14     6     7    1
    15     7    17    1
    16    17    18    1
    17    18    19   ar
    18    19    20   ar
    19    20    21   ar
    20    21    22   ar
    21    22    24    1
    22    24    25   am
    23    24    26    2
    24    22    23   ar
    25     7     8    1
    26    16    11   ar
    27     5     1    1
    28    23    18   ar
    29     8     2    1
    30    25    27    1
    31    25    28    1
