@<TRIPOS>MOLECULE
*****
 40 45 0 0 0
SMALL
GASTEIGER

@<TRIPOS>ATOM
      1 C         141.4567  143.0527  161.5811 C.3     1  UNL1        0.0667
      2 C         142.2357  142.5113  160.4191 C.3     1  UNL1        0.0186
      3 C         143.0738  143.4328  159.5835 C.3     1  UNL1        0.0229
      4 C         143.8528  142.8915  158.4215 C.3     1  UNL1        0.0934
      5 N         143.7936  141.4287  158.0952 N.am    1  UNL1       -0.2795
      6 C         144.5726  140.8873  156.9332 C.2     1  UNL1        0.2276
      7 O         144.5134  139.4244  156.6070 O.2     1  UNL1       -0.2748
      8 C         142.9555  140.5071  158.9309 C.3     1  UNL1        0.0934
      9 C         142.1765  141.0484  160.0928 C.3     1  UNL1        0.0229
     10 C         145.4107  141.8088  156.0976 C.3     1  UNL1        0.1062
     11 C         146.8517  142.1502  156.3367 C.3     1  UNL1        0.0411
     12 C         147.2866  143.1031  155.2630 C.3     1  UNL1        0.1158
     13 C         146.8311  143.8450  154.0415 C.3     1  UNL1        0.0321
     14 C         145.3901  143.5036  153.8024 C.3     1  UNL1        0.0325
     15 C         144.9551  142.5507  154.8761 C.3     1  UNL1        0.1238
     16 O         146.1272  142.3032  155.7788 O.3     1  UNL1       -0.3582
     17 N         142.2085  141.6603  166.1597 N.pl3   1  UNL1       -0.3039
     18 C         143.4600  142.4609  165.9520 C.3     1  UNL1        0.0923
     19 C         143.9026  143.2031  164.7260 C.3     1  UNL1        0.0387
     20 C         143.2032  143.3281  163.4049 C.3     1  UNL1        0.0739
     21 N         141.8885  142.7418  162.9835 N.3     1  UNL1       -0.2720
     22 C         140.9483  141.8856  163.7793 C.3     1  UNL1        0.0937
     23 C         141.0907  141.4043  165.1928 C.3     1  UNL1        0.1081
     24 C         142.5801  139.6504  167.7635 C.ar    1  UNL1       -0.0044
     25 C         142.4262  139.0229  169.1171 C.ar    1  UNL1        0.0161
     26 C         141.7467  139.7779  170.2209 C.ar    1  UNL1        0.0812
     27 N         141.2212  141.1604  169.9709 N.ar    1  UNL1       -0.2865
     28 C         140.5119  142.1401  170.8581 C.ar    1  UNL1        0.1022
     29 C         140.2275  143.3732  170.0526 C.ar    1  UNL1        0.1196
     30 N         140.7610  143.1555  168.6677 N.ar    1  UNL1       -0.2236
     31 C         141.3751  141.7879  168.6172 C.ar    1  UNL1        0.1609
     32 C         142.0546  141.0328  167.5135 C.ar    1  UNL1        0.0788
     33 C         144.0308  137.6466  166.9694 C.3     1  UNL1        0.0051
     34 C         143.2596  138.8953  166.6596 C.3     1  UNL1        0.0278
     35 C         140.2459  143.9049  161.3405 C.3     1  UNL1        0.1007
     36 C         140.2447  145.3433  161.7659 C.2     1  UNL1        0.2207
     37 N         141.1797  145.8076  162.8431 N.am    1  UNL1       -0.3288
     38 O         139.3086  146.3174  161.1141 O.2     1  UNL1       -0.2753
     39 H         141.7941  145.1683  163.2708 H       1  UNL1        0.1449
     40 H         141.1789  146.7517  163.1223 H       1  UNL1        0.1449
@<TRIPOS>BOND
     1    33    34    1
     2    34    24    1
     3    24    25   ar
     4    25    26   ar
     5    26    27   ar
     6    27    28   ar
     7    28    29   ar
     8    29    30   ar
     9    30    31   ar
    10    31    32   ar
    11    32    17    1
    12    17    18    1
    13    18    19    1
    14    19    20    1
    15    20    21    1
    16    21     1    1
    17     1    35    1
    18    35    36    1
    19    36    37   am
    20    36    38    2
    21     1     2    1
    22     2     3    1
    23     3     4    1
    24     4     5    1
    25     5     6   am
    26     6     7    2
    27    10     6    1
    28    10    11    1
    29    12    11    1
    30    12    13    1
    31    13    14    1
    32    15    14    1
    33    15    16    1
    34     5     8    1
    35     8     9    1
    36    21    22    1
    37    22    23    1
    38    32    24   ar
    39    23    17    1
    40    31    27   ar
    41     9     2    1
    42    15    10    1
    43    16    12    1
    44    37    39    1
    45    37    40    1
@<TRIPOS>MOLECULE
*****
 40 45 0 0 0
SMALL
GASTEIGER

@<TRIPOS>ATOM
      1 C         143.1709  141.0178  161.5267 C.3     1  UNL1        0.0667
      2 C         142.4692  140.3477  160.3828 C.3     1  UNL1        0.0186
      3 C         143.2439  139.4910  159.4258 C.3     1  UNL1        0.0229
      4 C         142.5421  138.8210  158.2819 C.3     1  UNL1        0.0934
      5 N         141.0656  139.0076  158.0949 N.am    1  UNL1       -0.2795
      6 C         140.3638  138.3376  156.9510 C.2     1  UNL1        0.2276
      7 O         138.8872  138.5243  156.7641 O.2     1  UNL1       -0.2748
      8 C         140.2908  139.8644  159.0519 C.3     1  UNL1        0.0934
      9 C         140.9926  140.5344  160.1958 C.3     1  UNL1        0.0229
     10 C         141.1386  137.4809  155.9940 C.3     1  UNL1        0.1062
     11 C         141.7879  137.9436  154.7235 C.3     1  UNL1        0.0411
     12 C         142.4506  136.7598  154.0837 C.3     1  UNL1        0.1158
     13 C         142.7121  135.2899  154.2292 C.3     1  UNL1        0.0321
     14 C         142.0627  134.8272  155.4998 C.3     1  UNL1        0.0325
     15 C         141.4000  136.0110  156.1395 C.3     1  UNL1        0.1238
     16 O         141.6397  137.2055  155.2644 O.3     1  UNL1       -0.3582
     17 N         141.7334  140.3819  166.1089 N.pl3   1  UNL1       -0.3039
     18 C         142.5589  139.1396  165.9500 C.3     1  UNL1        0.0923
     19 C         143.3247  138.6731  164.7476 C.3     1  UNL1        0.0387
     20 C         143.4542  139.3337  163.4070 C.3     1  UNL1        0.0739
     21 N         142.8498  140.6238  162.9379 N.3     1  UNL1       -0.2720
     22 C         141.9666  141.5721  163.6935 C.3     1  UNL1        0.0937
     23 C         141.4698  141.4645  165.1046 C.3     1  UNL1        0.1081
     24 C         139.7123  140.0177  167.7004 C.ar    1  UNL1       -0.0044
     25 C         139.0648  140.2017  169.0407 C.ar    1  UNL1        0.0161
     26 C         139.7907  140.9339  170.1303 C.ar    1  UNL1        0.0812
     27 N         141.1642  141.4821  169.8793 N.ar    1  UNL1       -0.2865
     28 C         142.1168  142.2420  170.7539 C.ar    1  UNL1        0.1022
     29 C         143.3532  142.5276  169.9540 C.ar    1  UNL1        0.1196
     30 N         143.1646  141.9442  168.5850 N.ar    1  UNL1       -0.2236
     31 C         141.8117  141.2981  168.5388 C.ar    1  UNL1        0.1609
     32 C         141.0858  140.5659  167.4494 C.ar    1  UNL1        0.0788
     33 C         137.7424  138.5099  166.9284 C.3     1  UNL1        0.0051
     34 C         138.9864  139.2855  166.6108 C.3     1  UNL1        0.0278
     35 C         144.1939  142.0819  161.2593 C.3     1  UNL1        0.1007
     36 C         144.9070  142.7409  162.4026 C.2     1  UNL1        0.2207
     37 N         145.9585  141.9893  163.1638 N.am    1  UNL1       -0.3288
     38 O         144.5687  144.1514  162.7846 O.2     1  UNL1       -0.2753
     39 H         146.1805  141.0635  162.9131 H       1  UNL1        0.1449
     40 H         146.4266  142.4217  163.9142 H       1  UNL1        0.1449
@<TRIPOS>BOND
     1    33    34    1
     2    34    24    1
     3    24    25   ar
     4    25    26   ar
     5    26    27   ar
     6    27    28   ar
     7    28    29   ar
     8    29    30   ar
     9    30    31   ar
    10    31    32   ar
    11    32    17    1
    12    17    18    1
    13    18    19    1
    14    19    20    1
    15    20    21    1
    16    21     1    1
    17     1    35    1
    18    35    36    1
    19    36    37   am
    20    36    38    2
    21     1     2    1
    22     2     3    1
    23     3     4    1
    24     4     5    1
    25     5     6   am
    26     6     7    2
    27    10     6    1
    28    10    11    1
    29    12    11    1
    30    12    13    1
    31    13    14    1
    32    15    14    1
    33    15    16    1
    34     5     8    1
    35     8     9    1
    36    21    22    1
    37    22    23    1
    38    32    24   ar
    39    23    17    1
    40    31    27   ar
    41     9     2    1
    42    15    10    1
    43    16    12    1
    44    37    39    1
    45    37    40    1
@<TRIPOS>MOLECULE
*****
 40 45 0 0 0
SMALL
GASTEIGER

@<TRIPOS>ATOM
      1 C         140.2260  139.9396  159.7643 C.3     1  UNL1        0.0667
      2 C         141.0880  139.2449  158.7522 C.3     1  UNL1        0.0186
      3 C         140.5737  138.0319  158.0352 C.3     1  UNL1        0.0229
      4 C         141.4358  137.3372  157.0231 C.3     1  UNL1        0.0934
      5 N         142.8121  137.8555  156.7281 N.am    1  UNL1       -0.2795
      6 C         143.6741  137.1608  155.7160 C.2     1  UNL1        0.2276
      7 O         145.0505  137.6791  155.4210 O.2     1  UNL1       -0.2748
      8 C         143.3264  139.0685  157.4452 C.3     1  UNL1        0.0934
      9 C         142.4644  139.7631  158.4572 C.3     1  UNL1        0.0229
     10 C         143.1599  135.9478  154.9990 C.3     1  UNL1        0.1062
     11 C         142.3330  135.9480  153.7474 C.3     1  UNL1        0.0411
     12 C         142.0442  134.5220  153.3824 C.3     1  UNL1        0.1158
     13 C         142.2665  133.0959  153.7910 C.3     1  UNL1        0.0321
     14 C         143.0933  133.0957  155.0425 C.3     1  UNL1        0.0325
     15 C         143.3821  134.5217  155.4075 C.3     1  UNL1        0.1238
     16 O         142.7338  135.4032  154.3816 O.3     1  UNL1       -0.3582
     17 N         140.5758  139.8022  164.5940 N.pl3   1  UNL1       -0.3039
     18 C         141.2410  138.4959  164.2758 C.3     1  UNL1        0.0923
     19 C         141.4885  137.8752  162.9329 C.3     1  UNL1        0.0387
     20 C         141.1319  138.4075  161.5765 C.3     1  UNL1        0.0739
     21 N         140.4399  139.6918  161.2281 N.3     1  UNL1       -0.2720
     22 C         139.9334  140.7612  162.1501 C.3     1  UNL1        0.0937
     23 C         139.9939  140.8104  163.6480 C.3     1  UNL1        0.1081
     24 C         139.3446  139.6132  166.8740 C.ar    1  UNL1       -0.0044
     25 C         139.2487  139.9567  168.3309 C.ar    1  UNL1        0.0161
     26 C         140.2882  140.8328  168.9650 C.ar    1  UNL1        0.0812
     27 N         141.4236  141.3653  168.1420 N.ar    1  UNL1       -0.2865
     28 C         142.5882  142.2449  168.4886 C.ar    1  UNL1        0.1022
     29 C         143.4038  142.4450  167.2457 C.ar    1  UNL1        0.1196
     30 N         142.7433  141.6891  166.1311 N.ar    1  UNL1       -0.2236
     31 C         141.5195  141.0218  166.6851 C.ar    1  UNL1        0.1609
     32 C         140.4800  140.1457  166.0510 C.ar    1  UNL1        0.0788
     33 C         137.3477  137.9666  167.1000 C.3     1  UNL1        0.0051
     34 C         138.3051  138.7371  166.2399 C.3     1  UNL1        0.0278
     35 C         139.1500  140.8821  159.3125 C.3     1  UNL1        0.1007
     36 C         137.7862  140.3569  158.9748 C.2     1  UNL1        0.2207
     37 N         137.2225  140.5628  157.6000 N.am    1  UNL1       -0.3288
     38 O         136.9860  139.6259  160.0118 O.2     1  UNL1       -0.2753
     39 H         137.7477  141.0426  156.9194 H       1  UNL1        0.1449
     40 H         136.3273  140.2181  157.3783 H       1  UNL1        0.1449
@<TRIPOS>BOND
     1    33    34    1
     2    34    24    1
     3    24    25   ar
     4    25    26   ar
     5    26    27   ar
     6    27    28   ar
     7    28    29   ar
     8    29    30   ar
     9    30    31   ar
    10    31    32   ar
    11    32    17    1
    12    17    18    1
    13    18    19    1
    14    19    20    1
    15    20    21    1
    16    21     1    1
    17     1    35    1
    18    35    36    1
    19    36    37   am
    20    36    38    2
    21     1     2    1
    22     2     3    1
    23     3     4    1
    24     4     5    1
    25     5     6   am
    26     6     7    2
    27    10     6    1
    28    10    11    1
    29    12    11    1
    30    12    13    1
    31    13    14    1
    32    15    14    1
    33    15    16    1
    34     5     8    1
    35     8     9    1
    36    21    22    1
    37    22    23    1
    38    32    24   ar
    39    23    17    1
    40    31    27   ar
    41     9     2    1
    42    15    10    1
    43    16    12    1
    44    37    39    1
    45    37    40    1
@<TRIPOS>MOLECULE
*****
 40 45 0 0 0
SMALL
GASTEIGER

@<TRIPOS>ATOM
      1 C         139.8845  140.8152  158.6318 C.3     1  UNL1        0.0667
      2 C         140.7793  139.8400  157.9258 C.3     1  UNL1        0.0186
      3 C         140.2397  138.5130  157.4813 C.3     1  UNL1        0.0229
      4 C         141.1345  137.5378  156.7753 C.3     1  UNL1        0.0934
      5 N         142.5690  137.8898  156.5138 N.am    1  UNL1       -0.2795
      6 C         143.4638  136.9147  155.8078 C.2     1  UNL1        0.2276
      7 O         144.8983  137.2667  155.5463 O.2     1  UNL1       -0.2748
      8 C         143.1087  139.2170  156.9583 C.3     1  UNL1        0.0934
      9 C         142.2138  140.1920  157.6643 C.3     1  UNL1        0.0229
     10 C         142.9242  135.5876  155.3633 C.3     1  UNL1        0.1062
     11 C         142.3960  135.2634  153.9973 C.3     1  UNL1        0.0411
     12 C         141.9634  133.8271  153.9964 C.3     1  UNL1        0.1158
     13 C         141.8572  132.5912  154.8398 C.3     1  UNL1        0.0321
     14 C         142.3853  132.9154  156.2058 C.3     1  UNL1        0.0325
     15 C         142.8179  134.3517  156.2067 C.3     1  UNL1        0.1238
     16 O         142.5572  134.9152  154.8412 O.3     1  UNL1       -0.3582
     17 N         140.0304  141.0475  163.4684 N.pl3   1  UNL1       -0.3039
     18 C         138.8050  140.1962  163.3137 C.3     1  UNL1        0.0923
     19 C         138.1554  139.7129  162.0510 C.3     1  UNL1        0.0387
     20 C         138.5707  139.9614  160.6312 C.3     1  UNL1        0.0739
     21 N         139.7382  140.7545  160.1234 N.3     1  UNL1       -0.2720
     22 C         140.7787  141.4952  160.9101 C.3     1  UNL1        0.0937
     23 C         140.9088  141.6256  162.3987 C.3     1  UNL1        0.1081
     24 C         139.8940  142.5895  165.5550 C.ar    1  UNL1       -0.0044
     25 C         140.2938  142.9042  166.9659 C.ar    1  UNL1        0.0161
     26 C         141.2298  141.9916  167.7016 C.ar    1  UNL1        0.0812
     27 N         141.7660  140.7644  167.0262 N.ar    1  UNL1       -0.2865
     28 C         142.6980  139.6867  167.4953 C.ar    1  UNL1        0.1022
     29 C         142.8742  138.7059  166.3741 C.ar    1  UNL1        0.1196
     30 N         142.0511  139.1774  165.2121 N.ar    1  UNL1       -0.2236
     31 C         141.3662  140.4497  165.6151 C.ar    1  UNL1        0.1609
     32 C         140.4302  141.3622  164.8795 C.ar    1  UNL1        0.0788
     33 C         138.6149  144.8450  165.3925 C.3     1  UNL1        0.0051
     34 C         138.9579  143.5020  164.8193 C.3     1  UNL1        0.0278
     35 C         139.1361  141.8509  157.8462 C.3     1  UNL1        0.1007
     36 C         137.7327  141.5784  157.3919 C.2     1  UNL1        0.2207
     37 N         136.8893  142.6950  156.8516 N.am    1  UNL1       -0.3288
     38 O         137.1729  140.1895  157.4779 O.2     1  UNL1       -0.2753
     39 H         137.2568  143.6066  156.7952 H       1  UNL1        0.1449
     40 H         135.9682  142.5163  156.5535 H       1  UNL1        0.1449
@<TRIPOS>BOND
     1    33    34    1
     2    34    24    1
     3    24    25   ar
     4    25    26   ar
     5    26    27   ar
     6    27    28   ar
     7    28    29   ar
     8    29    30   ar
     9    30    31   ar
    10    31    32   ar
    11    32    17    1
    12    17    18    1
    13    18    19    1
    14    19    20    1
    15    20    21    1
    16    21     1    1
    17     1    35    1
    18    35    36    1
    19    36    37   am
    20    36    38    2
    21     1     2    1
    22     2     3    1
    23     3     4    1
    24     4     5    1
    25     5     6   am
    26     6     7    2
    27    10     6    1
    28    10    11    1
    29    12    11    1
    30    12    13    1
    31    13    14    1
    32    15    14    1
    33    15    16    1
    34     5     8    1
    35     8     9    1
    36    21    22    1
    37    22    23    1
    38    32    24   ar
    39    23    17    1
    40    31    27   ar
    41     9     2    1
    42    15    10    1
    43    16    12    1
    44    37    39    1
    45    37    40    1
@<TRIPOS>MOLECULE
*****
 40 45 0 0 0
SMALL
GASTEIGER

@<TRIPOS>ATOM
      1 C         140.3529  143.0869  161.2664 C.3     1  UNL1        0.0667
      2 C         139.8403  142.3197  160.0837 C.3     1  UNL1        0.0186
      3 C         138.8219  142.9383  159.1725 C.3     1  UNL1        0.0229
      4 C         138.3093  142.1711  157.9898 C.3     1  UNL1        0.0934
      5 N         138.8151  140.7853  157.7184 N.am    1  UNL1       -0.2795
      6 C         138.3024  140.0182  156.5357 C.2     1  UNL1        0.2276
      7 O         138.8082  138.6323  156.2643 O.2     1  UNL1       -0.2748
      8 C         139.8334  140.1666  158.6296 C.3     1  UNL1        0.0934
      9 C         140.3460  140.9338  159.8122 C.3     1  UNL1        0.0229
     10 C         137.2841  140.6368  155.6245 C.3     1  UNL1        0.1062
     11 C         135.7968  140.6093  155.8168 C.3     1  UNL1        0.0411
     12 C         135.1677  141.3470  154.6722 C.3     1  UNL1        0.1158
     13 C         135.4579  142.1017  153.4088 C.3     1  UNL1        0.0321
     14 C         136.9453  142.1292  153.2165 C.3     1  UNL1        0.0325
     15 C         137.5743  141.3915  154.3611 C.3     1  UNL1        0.1238
     16 O         136.4758  140.9080  155.2608 O.3     1  UNL1       -0.3582
     17 N         140.7955  141.3474  165.7659 N.pl3   1  UNL1       -0.3039
     18 C         139.3453  141.0382  165.5391 C.3     1  UNL1        0.0923
     19 C         138.5104  141.3095  164.3228 C.3     1  UNL1        0.0387
     20 C         138.9194  141.9571  163.0330 C.3     1  UNL1        0.0739
     21 N         140.2643  142.4932  162.6410 N.3     1  UNL1       -0.2720
     22 C         141.5324  142.5142  163.4420 C.3     1  UNL1        0.0937
     23 C         141.7688  142.0043  164.8326 C.3     1  UNL1        0.1081
     24 C         142.1141  139.6668  167.2447 C.ar    1  UNL1       -0.0044
     25 C         142.6635  139.2661  168.5817 C.ar    1  UNL1        0.0161
     26 C         142.4437  140.1454  169.7770 C.ar    1  UNL1        0.0812
     27 N         141.6744  141.4253  169.6352 N.ar    1  UNL1       -0.2865
     28 C         141.3011  142.4870  170.6269 C.ar    1  UNL1        0.1022
     29 C         140.5210  143.5439  169.9027 C.ar    1  UNL1        0.1196
     30 N         140.4122  143.1353  168.4635 N.ar    1  UNL1       -0.2236
     31 C         141.1250  141.8259  168.2982 C.ar    1  UNL1        0.1609
     32 C         141.3449  140.9467  167.1030 C.ar    1  UNL1        0.0788
     33 C         143.6694  138.7701  165.3668 C.3     1  UNL1        0.0051
     34 C         142.3339  138.7876  166.0494 C.3     1  UNL1        0.0278
     35 C         140.9540  144.4477  161.0743 C.3     1  UNL1        0.1007
     36 C         140.3916  145.6269  161.8112 C.2     1  UNL1        0.2207
     37 N         141.0358  146.0934  163.0829 N.am    1  UNL1       -0.3288
     38 O         139.1849  146.3396  161.2764 O.2     1  UNL1       -0.2753
     39 H         141.8278  145.6256  163.4339 H       1  UNL1        0.1449
     40 H         140.6667  146.8674  163.5666 H       1  UNL1        0.1449
@<TRIPOS>BOND
     1    33    34    1
     2    34    24    1
     3    24    25   ar
     4    25    26   ar
     5    26    27   ar
     6    27    28   ar
     7    28    29   ar
     8    29    30   ar
     9    30    31   ar
    10    31    32   ar
    11    32    17    1
    12    17    18    1
    13    18    19    1
    14    19    20    1
    15    20    21    1
    16    21     1    1
    17     1    35    1
    18    35    36    1
    19    36    37   am
    20    36    38    2
    21     1     2    1
    22     2     3    1
    23     3     4    1
    24     4     5    1
    25     5     6   am
    26     6     7    2
    27    10     6    1
    28    10    11    1
    29    12    11    1
    30    12    13    1
    31    13    14    1
    32    15    14    1
    33    15    16    1
    34     5     8    1
    35     8     9    1
    36    21    22    1
    37    22    23    1
    38    32    24   ar
    39    23    17    1
    40    31    27   ar
    41     9     2    1
    42    15    10    1
    43    16    12    1
    44    37    39    1
    45    37    40    1
@<TRIPOS>MOLECULE
*****
 40 45 0 0 0
SMALL
GASTEIGER

@<TRIPOS>ATOM
      1 C         141.1617  142.7308  161.4411 C.3     1  UNL1        0.0667
      2 C         141.7616  141.9268  160.3258 C.3     1  UNL1        0.0186
      3 C         141.0135  140.7573  159.7578 C.3     1  UNL1        0.0229
      4 C         141.6133  139.9533  158.6426 C.3     1  UNL1        0.0934
      5 N         142.9612  140.3187  158.0954 N.am    1  UNL1       -0.2795
      6 C         143.5610  139.5147  156.9801 C.2     1  UNL1        0.2276
      7 O         144.9091  139.8802  156.4329 O.2     1  UNL1       -0.2748
      8 C         143.7094  141.4883  158.6634 C.3     1  UNL1        0.0934
      9 C         143.1095  142.2922  159.7786 C.3     1  UNL1        0.0229
     10 C         142.8130  138.3452  156.4121 C.3     1  UNL1        0.1062
     11 C         141.7715  138.4042  155.3342 C.3     1  UNL1        0.0411
     12 C         141.2898  137.0069  155.0781 C.3     1  UNL1        0.1158
     13 C         141.4519  135.5732  155.4881 C.3     1  UNL1        0.0321
     14 C         142.4934  135.5142  156.5660 C.3     1  UNL1        0.0325
     15 C         142.9750  136.9115  156.8221 C.3     1  UNL1        0.1238
     16 O         142.2312  137.8341  155.9026 O.3     1  UNL1       -0.3582
     17 N         142.1082  141.6139  166.0589 N.pl3   1  UNL1       -0.3039
     18 C         143.2420  142.5648  165.8130 C.3     1  UNL1        0.0923
     19 C         143.5780  143.3148  164.5581 C.3     1  UNL1        0.0387
     20 C         142.8632  143.2992  163.2394 C.3     1  UNL1        0.0739
     21 N         141.6361  142.5298  162.8498 N.3     1  UNL1       -0.2720
     22 C         140.8204  141.5858  163.6828 C.3     1  UNL1        0.0937
     23 C         141.0305  141.1782  165.1109 C.3     1  UNL1        0.1081
     24 C         142.6645  139.6815  167.7040 C.ar    1  UNL1       -0.0044
     25 C         142.6000  139.0879  169.0800 C.ar    1  UNL1        0.0161
     26 C         141.9145  139.8328  170.1869 C.ar    1  UNL1        0.0812
     27 N         141.2937  141.1715  169.9178 N.ar    1  UNL1       -0.2865
     28 C         140.5565  142.1321  170.8031 C.ar    1  UNL1        0.1022
     29 C         140.1654  143.3196  169.9741 C.ar    1  UNL1        0.1196
     30 N         140.6609  143.0928  168.5766 N.ar    1  UNL1       -0.2236
     31 C         141.3582  141.7652  168.5418 C.ar    1  UNL1        0.1609
     32 C         142.0436  141.0202  167.4349 C.ar    1  UNL1        0.0788
     33 C         142.5572  138.0382  165.6946 C.3     1  UNL1        0.0051
     34 C         143.3499  138.9366  166.5971 C.3     1  UNL1        0.0278
     35 C         140.0875  143.7359  161.1475 C.3     1  UNL1        0.1007
     36 C         140.4539  145.1592  160.8479 C.2     1  UNL1        0.2207
     37 N         141.8284  145.4903  160.3468 N.am    1  UNL1       -0.3288
     38 O         139.4457  146.2515  161.0494 O.2     1  UNL1       -0.2753
     39 H         142.4901  144.7734  160.2146 H       1  UNL1        0.1449
     40 H         142.0689  146.4245  160.1501 H       1  UNL1        0.1449
@<TRIPOS>BOND
     1    33    34    1
     2    34    24    1
     3    24    25   ar
     4    25    26   ar
     5    26    27   ar
     6    27    28   ar
     7    28    29   ar
     8    29    30   ar
     9    30    31   ar
    10    31    32   ar
    11    32    17    1
    12    17    18    1
    13    18    19    1
    14    19    20    1
    15    20    21    1
    16    21     1    1
    17     1    35    1
    18    35    36    1
    19    36    37   am
    20    36    38    2
    21     1     2    1
    22     2     3    1
    23     3     4    1
    24     4     5    1
    25     5     6   am
    26     6     7    2
    27    10     6    1
    28    10    11    1
    29    12    11    1
    30    12    13    1
    31    13    14    1
    32    15    14    1
    33    15    16    1
    34     5     8    1
    35     8     9    1
    36    21    22    1
    37    22    23    1
    38    32    24   ar
    39    23    17    1
    40    31    27   ar
    41     9     2    1
    42    15    10    1
    43    16    12    1
    44    37    39    1
    45    37    40    1
@<TRIPOS>MOLECULE
*****
 40 45 0 0 0
SMALL
GASTEIGER

@<TRIPOS>ATOM
      1 C         143.0763  140.0678  158.6500 C.3     1  UNL1        0.0667
      2 C         142.9171  139.7820  160.1139 C.3     1  UNL1        0.0186
      3 C         141.5699  139.9104  160.7610 C.3     1  UNL1        0.0229
      4 C         141.4107  139.6246  162.2248 C.3     1  UNL1        0.0934
      5 N         142.5987  139.2105  163.0417 N.am    1  UNL1       -0.2795
      6 C         142.4395  138.9247  164.5055 C.2     1  UNL1        0.2276
      7 O         143.6275  138.5105  165.3224 O.2     1  UNL1       -0.2748
      8 C         143.9459  139.0821  162.3946 C.3     1  UNL1        0.0934
      9 C         144.1050  139.3679  160.9307 C.3     1  UNL1        0.0229
     10 C         141.0923  139.0530  165.1526 C.3     1  UNL1        0.1062
     11 C         140.6152  140.2149  165.9726 C.3     1  UNL1        0.0411
     12 C         139.2138  139.9220  166.4202 C.3     1  UNL1        0.1158
     13 C         138.1073  138.9111  166.3609 C.3     1  UNL1        0.0321
     14 C         138.5844  137.7492  165.5409 C.3     1  UNL1        0.0325
     15 C         139.9858  138.0420  165.0934 C.3     1  UNL1        0.1238
     16 O         140.3748  139.3849  165.6368 O.3     1  UNL1       -0.3582
     17 N         143.4438  136.0330  155.9942 N.pl3   1  UNL1       -0.3039
     18 C         144.3269  136.9296  155.1778 C.3     1  UNL1        0.0923
     19 C         144.6791  138.3675  155.4196 C.3     1  UNL1        0.0387
     20 C         144.2354  139.2639  156.5376 C.3     1  UNL1        0.0739
     21 N         143.3299  138.9438  157.6897 N.3     1  UNL1       -0.2720
     22 C         142.6443  137.6482  158.0085 C.3     1  UNL1        0.0937
     23 C         142.6950  136.3528  157.2540 C.3     1  UNL1        0.1081
     24 C         142.5627  134.3783  154.1955 C.ar    1  UNL1       -0.0044
     25 C         142.4080  132.9766  153.6845 C.ar    1  UNL1        0.0161
     26 C         142.9799  131.8277  154.4611 C.ar    1  UNL1        0.0812
     27 N         143.7064  132.0807  155.7488 N.ar    1  UNL1       -0.2865
     28 C         144.3716  131.1556  156.7244 C.ar    1  UNL1        0.1022
     29 C         144.9373  131.9857  157.8384 C.ar    1  UNL1        0.1196
     30 N         144.6218  133.4237  157.5513 N.ar    1  UNL1       -0.2236
     31 C         143.8611  133.4825  156.2598 C.ar    1  UNL1        0.1609
     32 C         143.2892  134.6313  155.4832 C.ar    1  UNL1        0.0788
     33 C         140.6895  136.1432  153.8398 C.3     1  UNL1        0.0051
     34 C         141.9908  135.5272  153.4188 C.3     1  UNL1        0.0278
     35 C         142.9818  141.4777  158.1465 C.3     1  UNL1        0.1007
     36 C         143.9515  142.5140  158.6320 C.2     1  UNL1        0.2207
     37 N         145.1486  142.8688  157.8007 N.am    1  UNL1       -0.3288
     38 O         143.7241  143.1955  159.9487 O.2     1  UNL1       -0.2753
     39 H         145.2979  142.4215  156.9365 H       1  UNL1        0.1449
     40 H         145.7851  143.5489  158.1193 H       1  UNL1        0.1449
@<TRIPOS>BOND
     1    33    34    1
     2    34    24    1
     3    24    25   ar
     4    25    26   ar
     5    26    27   ar
     6    27    28   ar
     7    28    29   ar
     8    29    30   ar
     9    30    31   ar
    10    31    32   ar
    11    32    17    1
    12    17    18    1
    13    18    19    1
    14    19    20    1
    15    20    21    1
    16    21     1    1
    17     1    35    1
    18    35    36    1
    19    36    37   am
    20    36    38    2
    21     1     2    1
    22     2     3    1
    23     3     4    1
    24     4     5    1
    25     5     6   am
    26     6     7    2
    27    10     6    1
    28    10    11    1
    29    12    11    1
    30    12    13    1
    31    13    14    1
    32    15    14    1
    33    15    16    1
    34     5     8    1
    35     8     9    1
    36    21    22    1
    37    22    23    1
    38    32    24   ar
    39    23    17    1
    40    31    27   ar
    41     9     2    1
    42    15    10    1
    43    16    12    1
    44    37    39    1
    45    37    40    1
@<TRIPOS>MOLECULE
*****
 40 45 0 0 0
SMALL
GASTEIGER

@<TRIPOS>ATOM
      1 C         142.2030  142.9493  160.7899 C.3     1  UNL1        0.0667
      2 C         141.3907  143.4197  159.6199 C.3     1  UNL1        0.0186
      3 C         141.7406  144.7062  158.9326 C.3     1  UNL1        0.0229
      4 C         140.9283  145.1767  157.7627 C.3     1  UNL1        0.0934
      5 N         139.7661  144.3605  157.2799 N.am    1  UNL1       -0.2795
      6 C         138.9538  144.8309  156.1099 C.2     1  UNL1        0.2276
      7 O         137.7916  144.0147  155.6271 O.2     1  UNL1       -0.2748
      8 C         139.4162  143.0739  157.9671 C.3     1  UNL1        0.0934
      9 C         140.2285  142.6035  159.1371 C.3     1  UNL1        0.0229
     10 C         139.3037  146.1175  155.4227 C.3     1  UNL1        0.1062
     11 C         138.8211  147.4838  155.8104 C.3     1  UNL1        0.0411
     12 C         139.4167  148.4744  154.8544 C.3     1  UNL1        0.1158
     13 C         140.3107  148.6206  153.6588 C.3     1  UNL1        0.0321
     14 C         140.7934  147.2543  153.2711 C.3     1  UNL1        0.0325
     15 C         140.1977  146.2637  154.2271 C.3     1  UNL1        0.1238
     16 O         139.3469  147.0177  155.2056 O.3     1  UNL1       -0.3582
     17 N         140.5293  141.9624  165.2275 N.pl3   1  UNL1       -0.3039
     18 C         139.8599  143.2881  165.0164 C.3     1  UNL1        0.0923
     19 C         139.9347  144.1940  163.8231 C.3     1  UNL1        0.0387
     20 C         140.6974  143.9980  162.5464 C.3     1  UNL1        0.0739
     21 N         141.5735  142.8478  162.1476 N.3     1  UNL1       -0.2720
     22 C         141.9035  141.6093  162.9270 C.3     1  UNL1        0.0937
     23 C         141.4388  141.2153  164.2977 C.3     1  UNL1        0.1081
     24 C         139.1354  140.3016  166.6589 C.ar    1  UNL1       -0.0044
     25 C         138.8587  139.6350  167.9737 C.ar    1  UNL1        0.0161
     26 C         139.6992  139.9624  169.1723 C.ar    1  UNL1        0.0812
     27 N         140.8164  140.9566  169.0558 N.ar    1  UNL1       -0.2865
     28 C         141.8058  141.4762  170.0563 C.ar    1  UNL1        0.1022
     29 C         142.6940  142.4641  169.3597 C.ar    1  UNL1        0.1196
     30 N         142.2535  142.5549  167.9287 N.ar    1  UNL1       -0.2236
     31 C         141.0931  141.6232  167.7409 C.ar    1  UNL1        0.1609
     32 C         140.2526  141.2957  166.5424 C.ar    1  UNL1        0.0788
     33 C         138.6641  138.8181  164.5787 C.3     1  UNL1        0.0051
     34 C         138.2950  139.9741  165.4603 C.3     1  UNL1        0.0278
     35 C         143.6449  142.5804  160.6021 C.3     1  UNL1        0.1007
     36 C         144.6426  142.8811  161.6809 C.2     1  UNL1        0.2207
     37 N         144.6694  144.2376  162.3207 N.am    1  UNL1       -0.3288
     38 O         145.6136  141.8255  162.1201 O.2     1  UNL1       -0.2753
     39 H         144.0321  144.9304  162.0325 H       1  UNL1        0.1449
     40 H         145.3242  144.4350  163.0289 H       1  UNL1        0.1449
@<TRIPOS>BOND
     1    33    34    1
     2    34    24    1
     3    24    25   ar
     4    25    26   ar
     5    26    27   ar
     6    27    28   ar
     7    28    29   ar
     8    29    30   ar
     9    30    31   ar
    10    31    32   ar
    11    32    17    1
    12    17    18    1
    13    18    19    1
    14    19    20    1
    15    20    21    1
    16    21     1    1
    17     1    35    1
    18    35    36    1
    19    36    37   am
    20    36    38    2
    21     1     2    1
    22     2     3    1
    23     3     4    1
    24     4     5    1
    25     5     6   am
    26     6     7    2
    27    10     6    1
    28    10    11    1
    29    12    11    1
    30    12    13    1
    31    13    14    1
    32    15    14    1
    33    15    16    1
    34     5     8    1
    35     8     9    1
    36    21    22    1
    37    22    23    1
    38    32    24   ar
    39    23    17    1
    40    31    27   ar
    41     9     2    1
    42    15    10    1
    43    16    12    1
    44    37    39    1
    45    37    40    1
@<TRIPOS>MOLECULE
*****
 40 45 0 0 0
SMALL
GASTEIGER

@<TRIPOS>ATOM
      1 C         140.2869  142.2628  162.1869 C.3     1  UNL1        0.0667
      2 C         140.0075  141.6737  163.5378 C.3     1  UNL1        0.0186
      3 C         140.7972  142.1247  164.7306 C.3     1  UNL1        0.0229
      4 C         140.5179  141.5355  166.0815 C.3     1  UNL1        0.0934
      5 N         139.4488  140.4954  166.2396 N.am    1  UNL1       -0.2795
      6 C         139.1694  139.9063  167.5905 C.2     1  UNL1        0.2276
      7 O         138.1002  138.8661  167.7485 O.2     1  UNL1       -0.2748
      8 C         138.6589  140.0443  165.0467 C.3     1  UNL1        0.0934
      9 C         138.9384  140.6335  163.6959 C.3     1  UNL1        0.0229
     10 C         139.9592  140.3573  168.7833 C.3     1  UNL1        0.1062
     11 C         139.5371  141.3977  169.7780 C.3     1  UNL1        0.0411
     12 C         140.6267  141.5305  170.8004 C.3     1  UNL1        0.1158
     13 C         141.9771  141.0203  171.2080 C.3     1  UNL1        0.0321
     14 C         142.3991  139.9799  170.2133 C.3     1  UNL1        0.0325
     15 C         141.3096  139.8471  169.1909 C.3     1  UNL1        0.1238
     16 O         140.2141  140.8054  169.5537 O.3     1  UNL1       -0.3582
     17 N         143.3263  140.6626  158.7710 N.pl3   1  UNL1       -0.3039
     18 C         143.8989  139.9344  159.9508 C.3     1  UNL1        0.0923
     19 C         143.4409  139.9618  161.3789 C.3     1  UNL1        0.0387
     20 C         142.2973  140.7241  161.9799 C.3     1  UNL1        0.0739
     21 N         141.3292  141.6471  161.3013 N.3     1  UNL1       -0.2720
     22 C         141.2656  142.0360  159.8539 C.3     1  UNL1        0.0937
     23 C         142.1544  141.5979  158.7278 C.3     1  UNL1        0.1081
     24 C         143.5185  139.3550  156.5342 C.ar    1  UNL1       -0.0044
     25 C         144.2092  139.1162  155.2243 C.ar    1  UNL1        0.0161
     26 C         145.3985  139.9463  154.8412 C.ar    1  UNL1        0.0812
     27 N         145.8970  141.0151  155.7681 N.ar    1  UNL1       -0.2865
     28 C         147.0372  141.9839  155.6618 C.ar    1  UNL1        0.1022
     29 C         147.0511  142.8215  156.9061 C.ar    1  UNL1        0.1196
     30 N         145.9196  142.3703  157.7814 N.ar    1  UNL1       -0.2236
     31 C         145.2063  141.2539  157.0780 C.ar    1  UNL1        0.1609
     32 C         144.0170  140.4238  157.4610 C.ar    1  UNL1        0.0788
     33 C         142.5264  137.1707  157.5315 C.3     1  UNL1        0.0051
     34 C         142.3292  138.5249  156.9173 C.3     1  UNL1        0.0278
     35 C         139.5238  143.4676  161.7218 C.3     1  UNL1        0.1007
     36 C         140.1493  144.8285  161.8021 C.2     1  UNL1        0.2207
     37 N         141.6289  144.9628  162.0090 N.am    1  UNL1       -0.3288
     38 O         139.2953  146.0552  161.6756 O.2     1  UNL1       -0.2753
     39 H         142.1894  144.1577  162.0920 H       1  UNL1        0.1449
     40 H         142.0396  145.8560  162.0617 H       1  UNL1        0.1449
@<TRIPOS>BOND
     1    33    34    1
     2    34    24    1
     3    24    25   ar
     4    25    26   ar
     5    26    27   ar
     6    27    28   ar
     7    28    29   ar
     8    29    30   ar
     9    30    31   ar
    10    31    32   ar
    11    32    17    1
    12    17    18    1
    13    18    19    1
    14    19    20    1
    15    20    21    1
    16    21     1    1
    17     1    35    1
    18    35    36    1
    19    36    37   am
    20    36    38    2
    21     1     2    1
    22     2     3    1
    23     3     4    1
    24     4     5    1
    25     5     6   am
    26     6     7    2
    27    10     6    1
    28    10    11    1
    29    12    11    1
    30    12    13    1
    31    13    14    1
    32    15    14    1
    33    15    16    1
    34     5     8    1
    35     8     9    1
    36    21    22    1
    37    22    23    1
    38    32    24   ar
    39    23    17    1
    40    31    27   ar
    41     9     2    1
    42    15    10    1
    43    16    12    1
    44    37    39    1
    45    37    40    1
