@<TRIPOS>MOLECULE
*****
 32 35 0 0 0
SMALL
GASTEIGER

@<TRIPOS>ATOM
      1 C         139.3379  140.0617  166.0932 C.ar    1  UNL1        0.1367
      2 C         140.5017  139.2719  165.5723 C.ar    1  UNL1        0.0685
      3 C         141.7611  139.1700  166.3807 C.ar    1  UNL1        0.1345
      4 N         141.8566  139.8581  167.7102 N.ar    1  UNL1       -0.1980
      5 N         142.9602  139.9358  168.7230 N.ar    1  UNL1       -0.1602
      6 C         142.4784  140.7738  169.8700 C.ar    1  UNL1        0.1339
      7 C         141.0770  141.2140  169.5660 C.ar    1  UNL1        0.1250
      8 C         140.6927  140.6480  168.2311 C.ar    1  UNL1        0.1776
      9 N         139.4333  140.7498  167.4227 N.ar    1  UNL1       -0.2109
     10 N         138.0784  140.1636  165.2848 N.pl3   1  UNL1       -0.2960
     11 H         137.2194  139.8813  165.6741 H       1  UNL1        0.1537
     12 C         138.2352  142.7076  162.2427 C.ar    1  UNL1        0.0476
     13 C         138.1856  142.1755  163.6443 C.ar    1  UNL1        0.0313
     14 C         138.1280  140.6957  163.8832 C.ar    1  UNL1        0.0784
     15 C         138.1198  139.7481  162.7205 C.ar    1  UNL1        0.1532
     16 F         138.0621  138.2684  162.9594 F       1  UNL1       -0.2029
     17 C         138.1694  140.2802  161.3188 C.ar    1  UNL1        0.0279
     18 C         138.2270  141.7599  161.0800 C.ar    1  UNL1       -0.0061
     19 C         138.2766  142.2920  159.6784 C.3     1  UNL1        0.0324
     20 C         139.6726  146.3757  161.7646 C.3     1  UNL1        0.0949
     21 C         139.6149  144.8959  162.0035 C.2     1  UNL1        0.2266
     22 O         140.8792  144.1249  162.2419 O.2     1  UNL1       -0.2748
     23 N         138.2928  144.1874  162.0039 N.am    1  UNL1       -0.2841
     24 H         137.4630  144.6935  161.8474 H       1  UNL1        0.1548
     25 N         142.9250  138.3800  165.8597 N.pl3   1  UNL1       -0.3153
     26 H         143.2411  137.5873  166.3505 H       1  UNL1        0.1483
     27 C         143.6071  138.7979  164.5908 C.3     1  UNL1        0.1301
     28 C         144.8716  139.5334  164.2590 C.3     1  UNL1        0.1642
     29 O         144.5720  139.3888  162.7964 O.3     1  UNL1       -0.3501
     30 C         143.3075  138.6533  163.1282 C.3     1  UNL1        0.1642
     31 C         140.2118  142.0698  170.4430 C.1     1  UNL1        0.1052
     32 N         139.3467  142.9257  171.3199 N.1     1  UNL1       -0.1907
@<TRIPOS>BOND
     1    20    21    1
     2    21    22    2
     3    21    23   am
     4    23    12    1
     5    12    13   ar
     6    13    14   ar
     7    14    10    1
     8    10     1    1
     9     1     2   ar
    10     2     3   ar
    11     3    25    1
    12    25    27    1
    13    27    28    1
    14    28    29    1
    15    29    30    1
    16     3     4   ar
    17     4     5   ar
    18     5     6   ar
    19     6     7   ar
    20     7    31    1
    21    31    32    3
    22     7     8   ar
    23     8     9   ar
    24    14    15   ar
    25    15    16    1
    26    15    17   ar
    27    17    18   ar
    28    18    19    1
    29    18    12   ar
    30     9     1   ar
    31    30    27    1
    32     8     4   ar
    33    23    24    1
    34    10    11    1
    35    25    26    1
@<TRIPOS>MOLECULE
*****
 32 35 0 0 0
SMALL
GASTEIGER

@<TRIPOS>ATOM
      1 C         139.7412  140.7865  166.0910 C.ar    1  UNL1        0.1367
      2 C         140.6530  139.8503  165.3549 C.ar    1  UNL1        0.0685
      3 C         141.7901  139.1891  166.0760 C.ar    1  UNL1        0.1345
      4 N         142.0153  139.4642  167.5332 N.ar    1  UNL1       -0.1980
      5 N         143.0451  138.9629  168.5018 N.ar    1  UNL1       -0.1602
      6 C         142.7697  139.5894  169.8366 C.ar    1  UNL1        0.1339
      7 C         141.5696  140.4778  169.6930 C.ar    1  UNL1        0.1250
      8 C         141.1034  140.4005  168.2693 C.ar    1  UNL1        0.1776
      9 N         139.9664  141.0616  167.5482 N.ar    1  UNL1       -0.2109
     10 N         138.6041  141.4476  165.3699 N.pl3   1  UNL1       -0.2960
     11 H         137.6861  141.1109  165.4847 H       1  UNL1        0.1537
     12 C         138.8870  143.6813  162.1017 C.ar    1  UNL1        0.0476
     13 C         138.6254  142.5071  162.9977 C.ar    1  UNL1        0.0313
     14 C         138.8657  142.6218  164.4739 C.ar    1  UNL1        0.0784
     15 C         139.3676  143.9108  165.0541 C.ar    1  UNL1        0.1532
     16 F         139.6080  144.0256  166.5303 F       1  UNL1       -0.2029
     17 C         139.6293  145.0850  164.1580 C.ar    1  UNL1        0.0279
     18 C         139.3890  144.9703  162.6820 C.ar    1  UNL1       -0.0061
     19 C         139.6507  146.1445  161.7860 C.3     1  UNL1        0.0324
     20 C         139.5135  143.0032  158.2419 C.3     1  UNL1        0.0949
     21 C         139.7538  143.1180  159.7182 C.2     1  UNL1        0.2266
     22 O         141.1010  142.7844  160.2869 O.2     1  UNL1       -0.2748
     23 N         138.6467  143.5665  160.6255 N.am    1  UNL1       -0.2841
     24 H         137.7625  143.7855  160.2522 H       1  UNL1        0.1548
     25 N         142.7020  138.2528  165.3397 N.pl3   1  UNL1       -0.3153
     26 H         142.8477  137.3399  165.6782 H       1  UNL1        0.1483
     27 C         143.3919  138.7076  164.0879 C.3     1  UNL1        0.1301
     28 C         144.4765  139.6948  163.7734 C.3     1  UNL1        0.1642
     29 O         144.3677  139.3508  162.3175 O.3     1  UNL1       -0.3501
     30 C         143.2830  138.3635  162.6320 C.3     1  UNL1        0.1642
     31 C         140.9455  141.2994  170.7817 C.1     1  UNL1        0.1052
     32 N         140.3213  142.1209  171.8705 N.1     1  UNL1       -0.1907
@<TRIPOS>BOND
     1    20    21    1
     2    21    22    2
     3    21    23   am
     4    23    12    1
     5    12    13   ar
     6    13    14   ar
     7    14    10    1
     8    10     1    1
     9     1     2   ar
    10     2     3   ar
    11     3    25    1
    12    25    27    1
    13    27    28    1
    14    28    29    1
    15    29    30    1
    16     3     4   ar
    17     4     5   ar
    18     5     6   ar
    19     6     7   ar
    20     7    31    1
    21    31    32    3
    22     7     8   ar
    23     8     9   ar
    24    14    15   ar
    25    15    16    1
    26    15    17   ar
    27    17    18   ar
    28    18    19    1
    29    18    12   ar
    30     9     1   ar
    31    30    27    1
    32     8     4   ar
    33    23    24    1
    34    10    11    1
    35    25    26    1
@<TRIPOS>MOLECULE
*****
 32 35 0 0 0
SMALL
GASTEIGER

@<TRIPOS>ATOM
      1 C         142.2316  141.4592  166.3429 C.ar    1  UNL1        0.1367
      2 C         141.4374  140.6090  165.3963 C.ar    1  UNL1        0.0685
      3 C         140.2099  139.8947  165.8791 C.ar    1  UNL1        0.1345
      4 N         139.7767  140.0308  167.3087 N.ar    1  UNL1       -0.1980
      5 N         138.6193  139.4505  168.0663 N.ar    1  UNL1       -0.1602
      6 C         138.6983  139.9422  169.4812 C.ar    1  UNL1        0.1339
      7 C         139.9044  140.8263  169.5981 C.ar    1  UNL1        0.1250
      8 C         140.5709  140.8811  168.2554 C.ar    1  UNL1        0.1776
      9 N         141.7983  141.5953  167.7725 N.ar    1  UNL1       -0.2109
     10 N         143.4591  142.1735  165.8600 N.pl3   1  UNL1       -0.2960
     11 H         144.0849  142.5701  166.5084 H       1  UNL1        0.1537
     12 C         143.3605  143.4819  162.1146 C.ar    1  UNL1        0.0476
     13 C         143.0865  143.3721  163.5852 C.ar    1  UNL1        0.0313
     14 C         143.7331  142.2833  164.3894 C.ar    1  UNL1        0.0784
     15 C         144.6537  141.3045  163.7228 C.ar    1  UNL1        0.1532
     16 F         145.3003  140.2157  164.5269 F       1  UNL1       -0.2029
     17 C         144.9277  141.4143  162.2521 C.ar    1  UNL1        0.0279
     18 C         144.2812  142.5030  161.4480 C.ar    1  UNL1       -0.0061
     19 C         144.5551  142.6129  159.9774 C.3     1  UNL1        0.0324
     20 C         140.6935  145.4576  159.9388 C.3     1  UNL1        0.0949
     21 C         141.3402  144.3689  160.7430 C.2     1  UNL1        0.2266
     22 O         140.6131  143.0784  160.9795 O.2     1  UNL1       -0.2748
     23 N         142.7139  144.5707  161.3105 N.am    1  UNL1       -0.2841
     24 H         143.1911  145.4177  161.1552 H       1  UNL1        0.1548
     25 N         139.4157  139.0444  164.9323 N.pl3   1  UNL1       -0.3153
     26 H         138.4331  139.0282  164.9912 H       1  UNL1        0.1483
     27 C         140.1187  138.2188  163.8959 C.3     1  UNL1        0.1301
     28 C         141.1893  137.1685  163.9237 C.3     1  UNL1        0.1642
     29 O         141.1129  137.0511  162.4303 O.3     1  UNL1       -0.3501
     30 C         140.0423  138.1013  162.4025 C.3     1  UNL1        0.1642
     31 C         140.3634  141.5318  170.8397 C.1     1  UNL1        0.1052
     32 N         140.8224  142.2373  172.0813 N.1     1  UNL1       -0.1907
@<TRIPOS>BOND
     1    20    21    1
     2    21    22    2
     3    21    23   am
     4    23    12    1
     5    12    13   ar
     6    13    14   ar
     7    14    10    1
     8    10     1    1
     9     1     2   ar
    10     2     3   ar
    11     3    25    1
    12    25    27    1
    13    27    28    1
    14    28    29    1
    15    29    30    1
    16     3     4   ar
    17     4     5   ar
    18     5     6   ar
    19     6     7   ar
    20     7    31    1
    21    31    32    3
    22     7     8   ar
    23     8     9   ar
    24    14    15   ar
    25    15    16    1
    26    15    17   ar
    27    17    18   ar
    28    18    19    1
    29    18    12   ar
    30     9     1   ar
    31    30    27    1
    32     8     4   ar
    33    23    24    1
    34    10    11    1
    35    25    26    1
@<TRIPOS>MOLECULE
*****
 32 35 0 0 0
SMALL
GASTEIGER

@<TRIPOS>ATOM
      1 C         139.0245  143.4286  161.6637 C.ar    1  UNL1        0.1367
      2 C         140.2354  144.0034  162.3369 C.ar    1  UNL1        0.0685
      3 C         141.3191  144.6382  161.5166 C.ar    1  UNL1        0.1345
      4 N         141.1918  144.6981  160.0233 N.ar    1  UNL1       -0.1980
      5 N         142.0911  145.2572  158.9609 N.ar    1  UNL1       -0.1602
      6 C         141.4359  145.0280  157.6312 C.ar    1  UNL1        0.1339
      7 C         140.1317  144.3272  157.8717 C.ar    1  UNL1        0.1250
      8 C         139.9808  144.1233  159.3501 C.ar    1  UNL1        0.1776
      9 N         138.8971  143.4886  160.1704 N.ar    1  UNL1       -0.2109
     10 N         137.9407  142.7938  162.4839 N.pl3   1  UNL1       -0.2960
     11 H         137.0760  143.2510  162.5956 H       1  UNL1        0.1537
     12 C         138.5861  140.0429  165.2708 C.ar    1  UNL1        0.0476
     13 C         138.3523  141.3744  164.6208 C.ar    1  UNL1        0.0313
     14 C         138.1746  141.4623  163.1340 C.ar    1  UNL1        0.0784
     15 C         138.2308  140.2188  162.2971 C.ar    1  UNL1        0.1532
     16 F         138.0532  140.3066  160.8102 F       1  UNL1       -0.2029
     17 C         138.4647  138.8872  162.9471 C.ar    1  UNL1        0.0279
     18 C         138.6423  138.7993  164.4339 C.ar    1  UNL1       -0.0061
     19 C         138.8762  137.4679  165.0839 C.3     1  UNL1        0.0324
     20 C         140.2947  140.0888  168.8525 C.3     1  UNL1        0.0949
     21 C         140.1170  140.1767  167.3656 C.2     1  UNL1        0.2266
     22 O         141.2925  140.4862  166.4868 O.2     1  UNL1       -0.2748
     23 N         138.7638  139.9551  166.7577 N.am    1  UNL1       -0.2841
     24 H         137.9922  139.7519  167.3345 H       1  UNL1        0.1548
     25 N         142.5301  145.2130  162.1899 N.pl3   1  UNL1       -0.3153
     26 H         142.6909  146.1840  162.1684 H       1  UNL1        0.1483
     27 C         143.4960  144.3083  162.8959 C.3     1  UNL1        0.1301
     28 C         143.8527  144.0495  164.3297 C.3     1  UNL1        0.1642
     29 O         144.8620  143.0289  163.8945 O.3     1  UNL1       -0.3501
     30 C         144.5053  143.2876  162.4607 C.3     1  UNL1        0.1642
     31 C         139.1506  143.9045  156.8187 C.1     1  UNL1        0.1052
     32 N         138.1696  143.4818  155.7657 N.1     1  UNL1       -0.1907
@<TRIPOS>BOND
     1    20    21    1
     2    21    22    2
     3    21    23   am
     4    23    12    1
     5    12    13   ar
     6    13    14   ar
     7    14    10    1
     8    10     1    1
     9     1     2   ar
    10     2     3   ar
    11     3    25    1
    12    25    27    1
    13    27    28    1
    14    28    29    1
    15    29    30    1
    16     3     4   ar
    17     4     5   ar
    18     5     6   ar
    19     6     7   ar
    20     7    31    1
    21    31    32    3
    22     7     8   ar
    23     8     9   ar
    24    14    15   ar
    25    15    16    1
    26    15    17   ar
    27    17    18   ar
    28    18    19    1
    29    18    12   ar
    30     9     1   ar
    31    30    27    1
    32     8     4   ar
    33    23    24    1
    34    10    11    1
    35    25    26    1
@<TRIPOS>MOLECULE
*****
 32 35 0 0 0
SMALL
GASTEIGER

@<TRIPOS>ATOM
      1 C         139.6808  140.7434  165.8409 C.ar    1  UNL1        0.1367
      2 C         139.6364  140.5486  167.3275 C.ar    1  UNL1        0.0685
      3 C         140.7594  139.8396  168.0249 C.ar    1  UNL1        0.1345
      4 N         141.9267  139.3255  167.2356 N.ar    1  UNL1       -0.1980
      5 N         143.1706  138.5937  167.6446 N.ar    1  UNL1       -0.1602
      6 C         143.9838  138.3363  166.4107 C.ar    1  UNL1        0.1339
      7 C         143.2424  138.9090  165.2391 C.ar    1  UNL1        0.1250
      8 C         141.9711  139.5203  165.7490 C.ar    1  UNL1        0.1776
      9 N         140.8481  140.2293  165.0516 N.ar    1  UNL1       -0.2109
     10 N         138.5578  141.4523  165.1435 N.pl3   1  UNL1       -0.2960
     11 H         137.6322  141.1353  165.2528 H       1  UNL1        0.1537
     12 C         138.9720  143.7403  161.9272 C.ar    1  UNL1        0.0476
     13 C         138.6846  142.5482  162.7912 C.ar    1  UNL1        0.0313
     14 C         138.8452  142.6443  164.2795 C.ar    1  UNL1        0.0784
     15 C         139.2932  143.9326  164.9038 C.ar    1  UNL1        0.1532
     16 F         139.4538  144.0288  166.3921 F       1  UNL1       -0.2029
     17 C         139.5806  145.1247  164.0398 C.ar    1  UNL1        0.0279
     18 C         139.4200  145.0285  162.5516 C.ar    1  UNL1       -0.0061
     19 C         139.7074  146.2205  161.6876 C.3     1  UNL1        0.0324
     20 C         139.8079  143.1196  158.0976 C.3     1  UNL1        0.0949
     21 C         139.9685  143.2159  159.5859 C.2     1  UNL1        0.2266
     22 O         141.2861  142.8838  160.2211 O.2     1  UNL1       -0.2748
     23 N         138.8114  143.6441  160.4389 N.am    1  UNL1       -0.2841
     24 H         137.9465  143.8620  160.0220 H       1  UNL1        0.1548
     25 N         140.7150  139.6448  169.5116 N.pl3   1  UNL1       -0.3153
     26 H         140.4182  138.7843  169.8866 H       1  UNL1        0.1483
     27 C         141.1227  140.7611  170.4268 C.3     1  UNL1        0.1301
     28 C         140.4895  142.0411  170.8860 C.3     1  UNL1        0.1642
     29 O         141.6992  142.3399  171.7211 O.3     1  UNL1       -0.3501
     30 C         142.3323  141.0599  171.2618 C.3     1  UNL1        0.1642
     31 C         143.6933  138.8760  163.8089 C.1     1  UNL1        0.1052
     32 N         144.1442  138.8431  162.3786 N.1     1  UNL1       -0.1907
@<TRIPOS>BOND
     1    20    21    1
     2    21    22    2
     3    21    23   am
     4    23    12    1
     5    12    13   ar
     6    13    14   ar
     7    14    10    1
     8    10     1    1
     9     1     2   ar
    10     2     3   ar
    11     3    25    1
    12    25    27    1
    13    27    28    1
    14    28    29    1
    15    29    30    1
    16     3     4   ar
    17     4     5   ar
    18     5     6   ar
    19     6     7   ar
    20     7    31    1
    21    31    32    3
    22     7     8   ar
    23     8     9   ar
    24    14    15   ar
    25    15    16    1
    26    15    17   ar
    27    17    18   ar
    28    18    19    1
    29    18    12   ar
    30     9     1   ar
    31    30    27    1
    32     8     4   ar
    33    23    24    1
    34    10    11    1
    35    25    26    1
@<TRIPOS>MOLECULE
*****
 32 35 0 0 0
SMALL
GASTEIGER

@<TRIPOS>ATOM
      1 C         142.4236  140.9049  166.0498 C.ar    1  UNL1        0.1367
      2 C         142.1719  141.1986  167.4990 C.ar    1  UNL1        0.0685
      3 C         140.9264  140.6897  168.1622 C.ar    1  UNL1        0.1345
      4 N         139.9326  139.8871  167.3761 N.ar    1  UNL1       -0.1980
      5 N         138.6252  139.2577  167.7564 N.ar    1  UNL1       -0.1602
      6 C         138.0689  138.5749  166.5422 C.ar    1  UNL1        0.1339
      7 C         139.0324  138.7824  165.4114 C.ar    1  UNL1        0.1250
      8 C         140.1842  139.5933  165.9268 C.ar    1  UNL1        0.1776
      9 N         141.4297  140.1022  165.2637 N.ar    1  UNL1       -0.2109
     10 N         143.6691  141.4138  165.3866 N.pl3   1  UNL1       -0.2960
     11 H         144.5024  141.4993  165.9038 H       1  UNL1        0.1537
     12 C         142.9387  143.4343  162.0497 C.ar    1  UNL1        0.0476
     13 C         142.9629  143.0558  163.5010 C.ar    1  UNL1        0.0313
     14 C         143.6448  141.7923  163.9353 C.ar    1  UNL1        0.0784
     15 C         144.3025  140.9073  162.9184 C.ar    1  UNL1        0.1532
     16 F         144.9845  139.6438  163.3526 F       1  UNL1       -0.2029
     17 C         144.2783  141.2858  161.4670 C.ar    1  UNL1        0.0279
     18 C         143.5964  142.5492  161.0327 C.ar    1  UNL1       -0.0061
     19 C         143.5722  142.9277  159.5815 C.3     1  UNL1        0.0324
     20 C         140.0946  145.9691  160.9381 C.3     1  UNL1        0.0949
     21 C         140.7766  144.7057  161.3724 C.2     1  UNL1        0.2266
     22 O         139.9784  143.4502  161.5636 O.2     1  UNL1       -0.2748
     23 N         142.2567  144.6978  161.6155 N.am    1  UNL1       -0.2841
     24 H         142.7806  145.5218  161.4900 H       1  UNL1        0.1548
     25 N         140.6748  140.9835  169.6115 N.pl3   1  UNL1       -0.3153
     26 H         140.7769  140.2710  170.2832 H       1  UNL1        0.1483
     27 C         140.2677  142.3629  170.0374 C.3     1  UNL1        0.1301
     28 C         140.5723  143.7528  169.5626 C.3     1  UNL1        0.1642
     29 O         139.6920  144.3139  170.6397 O.3     1  UNL1       -0.3501
     30 C         139.3874  142.9240  171.1145 C.3     1  UNL1        0.1642
     31 C         138.8722  138.2689  164.0112 C.1     1  UNL1        0.1052
     32 N         138.7120  137.7555  162.6109 N.1     1  UNL1       -0.1907
@<TRIPOS>BOND
     1    20    21    1
     2    21    22    2
     3    21    23   am
     4    23    12    1
     5    12    13   ar
     6    13    14   ar
     7    14    10    1
     8    10     1    1
     9     1     2   ar
    10     2     3   ar
    11     3    25    1
    12    25    27    1
    13    27    28    1
    14    28    29    1
    15    29    30    1
    16     3     4   ar
    17     4     5   ar
    18     5     6   ar
    19     6     7   ar
    20     7    31    1
    21    31    32    3
    22     7     8   ar
    23     8     9   ar
    24    14    15   ar
    25    15    16    1
    26    15    17   ar
    27    17    18   ar
    28    18    19    1
    29    18    12   ar
    30     9     1   ar
    31    30    27    1
    32     8     4   ar
    33    23    24    1
    34    10    11    1
    35    25    26    1
@<TRIPOS>MOLECULE
*****
 32 35 0 0 0
SMALL
GASTEIGER

@<TRIPOS>ATOM
      1 C         140.6766  142.4972  165.9549 C.ar    1  UNL1        0.1367
      2 C         141.4090  141.5188  165.0853 C.ar    1  UNL1        0.0685
      3 C         142.1634  140.3811  165.7071 C.ar    1  UNL1        0.1345
      4 N         142.1854  140.2220  167.1985 N.ar    1  UNL1       -0.1980
      5 N         142.8380  139.2075  168.0901 N.ar    1  UNL1       -0.1602
      6 C         142.5089  139.5591  169.5107 C.ar    1  UNL1        0.1339
      7 C         141.6529  140.7908  169.4971 C.ar    1  UNL1        0.1250
      8 C         141.4529  141.2005  168.0680 C.ar    1  UNL1        0.1776
      9 N         140.6985  142.3381  167.4462 N.ar    1  UNL1       -0.2109
     10 N         139.9221  143.6349  165.3331 N.pl3   1  UNL1       -0.2960
     11 H         139.3652  144.2214  165.8944 H       1  UNL1        0.1537
     12 C         139.2062  143.3841  161.4375 C.ar    1  UNL1        0.0476
     13 C         139.1120  143.1401  162.9146 C.ar    1  UNL1        0.0313
     14 C         140.0163  143.8789  163.8561 C.ar    1  UNL1        0.0784
     15 C         141.0149  144.8618  163.3205 C.ar    1  UNL1        0.1532
     16 F         141.9193  145.6006  164.2619 F       1  UNL1       -0.2029
     17 C         141.1091  145.1058  161.8434 C.ar    1  UNL1        0.0279
     18 C         140.2048  144.3671  160.9020 C.ar    1  UNL1       -0.0061
     19 C         140.2990  144.6111  159.4250 C.3     1  UNL1        0.0324
     20 C         137.8210  140.5817  158.9926 C.3     1  UNL1        0.0949
     21 C         138.7253  141.3207  159.9341 C.2     1  UNL1        0.2266
     22 O         140.0531  140.7349  160.3133 O.2     1  UNL1       -0.2748
     23 N         138.3019  142.6453  160.4961 N.am    1  UNL1       -0.2841
     24 H         137.4304  143.0298  160.2472 H       1  UNL1        0.1548
     25 N         142.8958  139.4026  164.8375 N.pl3   1  UNL1       -0.3153
     26 H         143.8764  139.4484  164.7628 H       1  UNL1        0.1483
     27 C         142.1342  138.3544  164.0818 C.3     1  UNL1        0.1301
     28 C         142.0345  137.9476  162.6414 C.3     1  UNL1        0.1642
     29 O         141.0571  136.8721  163.0128 O.3     1  UNL1       -0.3501
     30 C         141.1568  137.2789  164.4531 C.3     1  UNL1        0.1642
     31 C         141.0949  141.4900  170.7011 C.1     1  UNL1        0.1052
     32 N         140.5368  142.1892  171.9051 N.1     1  UNL1       -0.1907
@<TRIPOS>BOND
     1    20    21    1
     2    21    22    2
     3    21    23   am
     4    23    12    1
     5    12    13   ar
     6    13    14   ar
     7    14    10    1
     8    10     1    1
     9     1     2   ar
    10     2     3   ar
    11     3    25    1
    12    25    27    1
    13    27    28    1
    14    28    29    1
    15    29    30    1
    16     3     4   ar
    17     4     5   ar
    18     5     6   ar
    19     6     7   ar
    20     7    31    1
    21    31    32    3
    22     7     8   ar
    23     8     9   ar
    24    14    15   ar
    25    15    16    1
    26    15    17   ar
    27    17    18   ar
    28    18    19    1
    29    18    12   ar
    30     9     1   ar
    31    30    27    1
    32     8     4   ar
    33    23    24    1
    34    10    11    1
    35    25    26    1
@<TRIPOS>MOLECULE
*****
 32 35 0 0 0
SMALL
GASTEIGER

@<TRIPOS>ATOM
      1 C         140.8676  142.2110  166.0740 C.ar    1  UNL1        0.1367
      2 C         141.5853  141.1585  165.2822 C.ar    1  UNL1        0.0685
      3 C         142.2802  140.0322  165.9883 C.ar    1  UNL1        0.1345
      4 N         142.2573  139.9585  167.4863 N.ar    1  UNL1       -0.1980
      5 N         142.8481  138.9743  168.4519 N.ar    1  UNL1       -0.1602
      6 C         142.4954  139.4186  169.8405 C.ar    1  UNL1        0.1339
      7 C         141.6867  140.6774  169.7331 C.ar    1  UNL1        0.1250
      8 C         141.5395  141.0110  168.2781 C.ar    1  UNL1        0.1776
      9 N         140.8447  142.1373  167.5720 N.ar    1  UNL1       -0.2109
     10 N         140.1727  143.3373  165.3678 N.pl3   1  UNL1       -0.2960
     11 H         139.9831  144.1763  165.8468 H       1  UNL1        0.1537
     12 C         140.2986  143.4522  161.4028 C.ar    1  UNL1        0.0476
     13 C         140.7046  143.6042  162.8387 C.ar    1  UNL1        0.0313
     14 C         139.7667  143.1853  163.9318 C.ar    1  UNL1        0.0784
     15 C         138.4227  142.6143  163.5889 C.ar    1  UNL1        0.1532
     16 F         137.4847  142.1954  164.6819 F       1  UNL1       -0.2029
     17 C         138.0166  142.4623  162.1528 C.ar    1  UNL1        0.0279
     18 C         138.9546  142.8812  161.0598 C.ar    1  UNL1       -0.0061
     19 C         138.5486  142.7292  159.6239 C.3     1  UNL1        0.0324
     20 C         143.2052  143.3285  158.7034 C.3     1  UNL1        0.0949
     21 C         142.2672  142.9097  159.7965 C.2     1  UNL1        0.2266
     22 O         142.3597  141.5293  160.3761 O.2     1  UNL1       -0.2748
     23 N         141.2366  143.8712  160.3098 N.am    1  UNL1       -0.2841
     24 H         141.1759  144.7771  159.9293 H       1  UNL1        0.1548
     25 N         142.9980  138.9797  165.1964 N.pl3   1  UNL1       -0.3153
     26 H         143.9582  138.8210  165.3451 H       1  UNL1        0.1483
     27 C         142.2527  138.1689  164.1780 C.3     1  UNL1        0.1301
     28 C         142.3237  138.0133  162.6878 C.3     1  UNL1        0.1642
     29 O         141.1989  137.0222  162.7376 O.3     1  UNL1       -0.3501
     30 C         141.1279  137.1778  164.2278 C.3     1  UNL1        0.1642
     31 C         141.1240  141.4643  170.8795 C.1     1  UNL1        0.1052
     32 N         140.5613  142.2512  172.0258 N.1     1  UNL1       -0.1907
@<TRIPOS>BOND
     1    20    21    1
     2    21    22    2
     3    21    23   am
     4    23    12    1
     5    12    13   ar
     6    13    14   ar
     7    14    10    1
     8    10     1    1
     9     1     2   ar
    10     2     3   ar
    11     3    25    1
    12    25    27    1
    13    27    28    1
    14    28    29    1
    15    29    30    1
    16     3     4   ar
    17     4     5   ar
    18     5     6   ar
    19     6     7   ar
    20     7    31    1
    21    31    32    3
    22     7     8   ar
    23     8     9   ar
    24    14    15   ar
    25    15    16    1
    26    15    17   ar
    27    17    18   ar
    28    18    19    1
    29    18    12   ar
    30     9     1   ar
    31    30    27    1
    32     8     4   ar
    33    23    24    1
    34    10    11    1
    35    25    26    1
@<TRIPOS>MOLECULE
*****
 32 35 0 0 0
SMALL
GASTEIGER

@<TRIPOS>ATOM
      1 C         144.2861  143.0783  161.3629 C.ar    1  UNL1        0.1367
      2 C         144.7919  142.3598  160.1473 C.ar    1  UNL1        0.0685
      3 C         144.0449  142.4622  158.8505 C.ar    1  UNL1        0.1345
      4 N         142.7921  143.2830  158.7695 N.ar    1  UNL1       -0.1980
      5 N         141.8503  143.5679  157.6373 N.ar    1  UNL1       -0.1602
      6 C         140.7624  144.4624  158.1532 C.ar    1  UNL1        0.1339
      7 C         141.0318  144.7304  159.6043 C.ar    1  UNL1        0.1250
      8 C         142.2862  144.0015  159.9852 C.ar    1  UNL1        0.1776
      9 N         143.0332  143.8991  161.2819 N.ar    1  UNL1       -0.2109
     10 N         145.0331  142.9759  162.6597 N.pl3   1  UNL1       -0.2960
     11 H         145.9533  143.3195  162.7262 H       1  UNL1        0.1537
     12 C         143.3134  140.2816  165.0122 C.ar    1  UNL1        0.0476
     13 C         143.9686  140.9075  163.8167 C.ar    1  UNL1        0.0313
     14 C         144.3779  142.3501  163.8552 C.ar    1  UNL1        0.0784
     15 C         144.1322  143.1668  165.0891 C.ar    1  UNL1        0.1532
     16 F         144.5415  144.6093  165.1276 F       1  UNL1       -0.2029
     17 C         143.4770  142.5409  166.2846 C.ar    1  UNL1        0.0279
     18 C         143.0677  141.0984  166.2461 C.ar    1  UNL1       -0.0061
     19 C         142.4125  140.4726  167.4416 C.3     1  UNL1        0.0324
     20 C         141.1441  137.0141  164.4063 C.3     1  UNL1        0.0949
     21 C         141.5535  138.4566  164.4448 C.2     1  UNL1        0.2266
     22 O         140.6124  139.5167  163.9545 O.2     1  UNL1       -0.2748
     23 N         142.9041  138.8391  164.9737 N.am    1  UNL1       -0.2841
     24 H         143.5218  138.1433  165.2955 H       1  UNL1        0.1548
     25 N         144.5509  141.7436  157.6348 N.pl3   1  UNL1       -0.3153
     26 H         143.9969  141.0521  157.2056 H       1  UNL1        0.1483
     27 C         145.9007  142.0787  157.0731 C.3     1  UNL1        0.1301
     28 C         147.0384  142.9584  157.4995 C.3     1  UNL1        0.1642
     29 O         147.8098  142.5527  156.2788 O.3     1  UNL1       -0.3501
     30 C         146.6722  141.6729  155.8524 C.3     1  UNL1        0.1642
     31 C         140.1939  145.5785  160.5147 C.1     1  UNL1        0.1052
     32 N         139.3560  146.4265  161.4250 N.1     1  UNL1       -0.1907
@<TRIPOS>BOND
     1    20    21    1
     2    21    22    2
     3    21    23   am
     4    23    12    1
     5    12    13   ar
     6    13    14   ar
     7    14    10    1
     8    10     1    1
     9     1     2   ar
    10     2     3   ar
    11     3    25    1
    12    25    27    1
    13    27    28    1
    14    28    29    1
    15    29    30    1
    16     3     4   ar
    17     4     5   ar
    18     5     6   ar
    19     6     7   ar
    20     7    31    1
    21    31    32    3
    22     7     8   ar
    23     8     9   ar
    24    14    15   ar
    25    15    16    1
    26    15    17   ar
    27    17    18   ar
    28    18    19    1
    29    18    12   ar
    30     9     1   ar
    31    30    27    1
    32     8     4   ar
    33    23    24    1
    34    10    11    1
    35    25    26    1
