@<TRIPOS>MOLECULE
*****
 32 35 0 0 0
SMALL
GASTEIGER

@<TRIPOS>ATOM
      1 O         139.5765  140.3355  157.1996 O.2     1  UNL1       -0.2522
      2 C         138.4628  140.2493  158.2008 C.2     1  UNL1        0.3078
      3 N         137.1174  140.8285  157.8777 N.am    1  UNL1       -0.2681
      4 N         138.6946  139.5838  159.5250 N.am    1  UNL1       -0.2611
      5 C         140.0399  139.0046  159.8481 C.3     1  UNL1        0.1123
      6 C         140.2716  138.3392  161.1722 C.3     1  UNL1        0.0940
      7 N         139.1579  138.2530  162.1734 N.3     1  UNL1       -0.2697
      8 C         137.8126  138.8322  161.8503 C.3     1  UNL1        0.0940
      9 C         137.5809  139.4976  160.5261 C.3     1  UNL1        0.1123
     10 H         136.3865  140.7719  158.5348 H       1  UNL1        0.1564
     11 C         136.8857  141.4939  156.5535 C.ar    1  UNL1        0.0525
     12 C         136.2886  140.7168  155.4179 C.ar    1  UNL1        0.0156
     13 C         136.0569  141.3823  154.0938 C.ar    1  UNL1        0.0135
     14 C         136.4222  142.8249  153.9052 C.ar    1  UNL1        0.0683
     15 CL        136.1905  143.4903  152.5809 Cl      1  UNL1       -0.0814
     16 C         137.0193  143.6019  155.0408 C.ar    1  UNL1        0.0694
     17 CL        137.3847  145.0445  154.8522 Cl      1  UNL1       -0.0813
     18 C         137.2510  142.9365  156.3649 C.ar    1  UNL1        0.0270
     19 C         139.3897  137.5875  163.4976 C.3     1  UNL1        0.0735
     20 C         139.3795  138.4010  164.7578 C.3     1  UNL1        0.0320
     21 C         138.3456  138.1376  165.8122 C.3     1  UNL1        0.0042
     22 C         138.3354  138.9511  167.0723 C.3     1  UNL1        0.0174
     23 C         139.3590  140.0281  167.2782 C.3     1  UNL1        0.0724
     24 N         140.3928  140.2916  166.2237 N.3     1  UNL1       -0.2689
     25 C         140.4030  139.4780  164.9635 C.3     1  UNL1        0.0737
     26 C         141.4164  141.3685  166.4295 C.3     1  UNL1        0.0991
     27 C         141.4013  142.5931  165.5633 C.ar    1  UNL1       -0.0061
     28 C         140.1211  143.3452  165.3503 C.ar    1  UNL1       -0.0029
     29 C         140.1058  144.5697  164.4841 C.ar    1  UNL1       -0.0003
     30 C         141.3708  145.0421  163.8309 C.ar    1  UNL1       -0.0000
     31 C         142.6510  144.2899  164.0439 C.ar    1  UNL1       -0.0003
     32 C         142.6662  143.0654  164.9101 C.ar    1  UNL1       -0.0029
@<TRIPOS>BOND
     1     1     2    2
     2     2     3   am
     3     3    11    1
     4    11    12   ar
     5    12    13   ar
     6    13    14   ar
     7    14    15    1
     8    14    16   ar
     9    16    17    1
    10    16    18   ar
    11     2     4   am
    12     4     5    1
    13     5     6    1
    14     6     7    1
    15     7    19    1
    16    20    19    1
    17    20    21    1
    18    21    22    1
    19    22    23    1
    20    23    24    1
    21    24    26    1
    22    26    27    1
    23    27    28   ar
    24    28    29   ar
    25    29    30   ar
    26    30    31   ar
    27    31    32   ar
    28    24    25    1
    29     7     8    1
    30     8     9    1
    31    18    11   ar
    32     9     4    1
    33    25    20    1
    34    32    27   ar
    35     3    10    1
@<TRIPOS>MOLECULE
*****
 32 35 0 0 0
SMALL
GASTEIGER

@<TRIPOS>ATOM
      1 O         139.6656  140.5130  157.3417 O.2     1  UNL1       -0.2522
      2 C         138.5042  140.3043  158.2678 C.2     1  UNL1        0.3078
      3 N         137.1420  140.8032  157.8866 N.am    1  UNL1       -0.2681
      4 N         138.7052  139.5967  159.5751 N.am    1  UNL1       -0.2611
      5 C         140.0674  139.0979  159.9563 C.3     1  UNL1        0.1123
      6 C         140.2683  138.3903  161.2636 C.3     1  UNL1        0.0940
      7 N         139.1069  138.1817  162.1897 N.3     1  UNL1       -0.2697
      8 C         137.7446  138.6805  161.8085 C.3     1  UNL1        0.0940
      9 C         137.5438  139.3881  160.5012 C.3     1  UNL1        0.1123
     10 H         136.3797  140.6662  158.4944 H       1  UNL1        0.1564
     11 C         136.9411  141.5108  156.5792 C.ar    1  UNL1        0.0525
     12 C         136.3851  140.7668  155.4015 C.ar    1  UNL1        0.0156
     13 C         136.1842  141.4743  154.0942 C.ar    1  UNL1        0.0135
     14 C         136.5393  142.9259  153.9648 C.ar    1  UNL1        0.0683
     15 CL        136.3384  143.6335  152.6574 Cl      1  UNL1       -0.0814
     16 C         137.0954  143.6699  155.1426 C.ar    1  UNL1        0.0694
     17 CL        137.4505  145.1215  155.0131 Cl      1  UNL1       -0.0813
     18 C         137.2962  142.9624  156.4498 C.ar    1  UNL1        0.0270
     19 C         139.3078  137.4741  163.4970 C.3     1  UNL1        0.0735
     20 C         139.5778  138.2637  164.7434 C.3     1  UNL1        0.0320
     21 C         138.4404  138.6824  165.6271 C.3     1  UNL1        0.0042
     22 C         138.7105  139.4720  166.8735 C.3     1  UNL1        0.0174
     23 C         140.1180  139.8429  167.2363 C.3     1  UNL1        0.0724
     24 N         141.2554  139.4241  166.3525 N.3     1  UNL1       -0.2689
     25 C         140.9853  138.6345  165.1061 C.3     1  UNL1        0.0737
     26 C         142.6628  139.7949  166.7152 C.3     1  UNL1        0.0991
     27 C         143.5160  140.5472  165.7372 C.ar    1  UNL1       -0.0061
     28 C         143.5309  142.0470  165.7536 C.ar    1  UNL1       -0.0029
     29 C         144.3840  142.7993  164.7758 C.ar    1  UNL1       -0.0003
     30 C         145.2221  142.0518  163.7815 C.ar    1  UNL1       -0.0000
     31 C         145.2072  140.5519  163.7651 C.ar    1  UNL1       -0.0003
     32 C         144.3541  139.7997  164.7430 C.ar    1  UNL1       -0.0029
@<TRIPOS>BOND
     1     1     2    2
     2     2     3   am
     3     3    11    1
     4    11    12   ar
     5    12    13   ar
     6    13    14   ar
     7    14    15    1
     8    14    16   ar
     9    16    17    1
    10    16    18   ar
    11     2     4   am
    12     4     5    1
    13     5     6    1
    14     6     7    1
    15     7    19    1
    16    20    19    1
    17    20    21    1
    18    21    22    1
    19    22    23    1
    20    23    24    1
    21    24    26    1
    22    26    27    1
    23    27    28   ar
    24    28    29   ar
    25    29    30   ar
    26    30    31   ar
    27    31    32   ar
    28    24    25    1
    29     7     8    1
    30     8     9    1
    31    18    11   ar
    32     9     4    1
    33    25    20    1
    34    32    27   ar
    35     3    10    1
@<TRIPOS>MOLECULE
*****
 32 35 0 0 0
SMALL
GASTEIGER

@<TRIPOS>ATOM
      1 O         143.9439  137.2439  156.2306 O.2     1  UNL1       -0.2522
      2 C         142.5180  137.1397  156.6844 C.2     1  UNL1        0.3078
      3 N         141.8662  135.7943  156.8064 N.am    1  UNL1       -0.2681
      4 N         141.7439  138.3810  157.0161 N.am    1  UNL1       -0.2611
      5 C         142.3957  139.7264  156.8941 C.3     1  UNL1        0.1123
      6 C         141.6215  140.9677  157.2258 C.3     1  UNL1        0.0940
      7 N         140.1956  140.8634  157.6795 N.3     1  UNL1       -0.2697
      8 C         139.5438  139.5180  157.8016 C.3     1  UNL1        0.0940
      9 C         140.3179  138.2768  157.4698 C.3     1  UNL1        0.1123
     10 H         140.9303  135.7259  157.1042 H       1  UNL1        0.1564
     11 C         142.6403  134.5530  156.4747 C.ar    1  UNL1        0.0525
     12 C         142.3982  133.8427  155.1760 C.ar    1  UNL1        0.0156
     13 C         143.1723  132.6015  154.8443 C.ar    1  UNL1        0.0135
     14 C         144.1885  132.0705  155.8114 C.ar    1  UNL1        0.0683
     15 CL        144.9626  130.8292  155.4797 Cl      1  UNL1       -0.0814
     16 C         144.4307  132.7808  157.1102 C.ar    1  UNL1        0.0694
     17 CL        145.4469  132.2498  158.0773 Cl      1  UNL1       -0.0813
     18 C         143.6566  134.0220  157.4418 C.ar    1  UNL1        0.0270
     19 C         139.4215  142.1048  158.0112 C.3     1  UNL1        0.0735
     20 C         139.2770  142.5393  159.4396 C.3     1  UNL1        0.0320
     21 C         139.9995  143.7592  159.9292 C.3     1  UNL1        0.0042
     22 C         139.8550  144.1937  161.3576 C.3     1  UNL1        0.0174
     23 C         138.9879  143.4083  162.2964 C.3     1  UNL1        0.0724
     24 N         138.2654  142.1883  161.8068 N.3     1  UNL1       -0.2689
     25 C         138.4099  141.7538  160.3783 C.3     1  UNL1        0.0737
     26 C         137.3984  141.4029  162.7455 C.3     1  UNL1        0.0991
     27 C         137.9640  140.2233  163.4794 C.ar    1  UNL1       -0.0061
     28 C         138.3685  138.9928  162.7228 C.ar    1  UNL1       -0.0029
     29 C         138.9342  137.8132  163.4567 C.ar    1  UNL1       -0.0003
     30 C         139.0953  137.8641  164.9471 C.ar    1  UNL1       -0.0000
     31 C         138.6908  139.0945  165.7037 C.ar    1  UNL1       -0.0003
     32 C         138.1251  140.2741  164.9699 C.ar    1  UNL1       -0.0029
@<TRIPOS>BOND
     1     1     2    2
     2     2     3   am
     3     3    11    1
     4    11    12   ar
     5    12    13   ar
     6    13    14   ar
     7    14    15    1
     8    14    16   ar
     9    16    17    1
    10    16    18   ar
    11     2     4   am
    12     4     5    1
    13     5     6    1
    14     6     7    1
    15     7    19    1
    16    20    19    1
    17    20    21    1
    18    21    22    1
    19    22    23    1
    20    23    24    1
    21    24    26    1
    22    26    27    1
    23    27    28   ar
    24    28    29   ar
    25    29    30   ar
    26    30    31   ar
    27    31    32   ar
    28    24    25    1
    29     7     8    1
    30     8     9    1
    31    18    11   ar
    32     9     4    1
    33    25    20    1
    34    32    27   ar
    35     3    10    1
@<TRIPOS>MOLECULE
*****
 32 35 0 0 0
SMALL
GASTEIGER

@<TRIPOS>ATOM
      1 O         139.6394  140.3520  156.9236 O.2     1  UNL1       -0.2522
      2 C         138.5726  140.2184  157.9696 C.2     1  UNL1        0.3078
      3 N         137.1910  140.7375  157.7024 N.am    1  UNL1       -0.2681
      4 N         138.8876  139.5655  159.2829 N.am    1  UNL1       -0.2611
      5 C         140.2692  139.0463  159.5501 C.3     1  UNL1        0.1123
      6 C         140.5841  138.3934  160.8633 C.3     1  UNL1        0.0940
      7 N         139.5173  138.2597  161.9093 N.3     1  UNL1       -0.2697
      8 C         138.1356  138.7789  161.6421 C.3     1  UNL1        0.0940
      9 C         137.8208  139.4318  160.3289 C.3     1  UNL1        0.1123
     10 H         136.4908  140.6498  158.3889 H       1  UNL1        0.1564
     11 C         136.8761  141.3904  156.3891 C.ar    1  UNL1        0.0525
     12 C         137.0921  142.8643  156.2134 C.ar    1  UNL1        0.0156
     13 C         136.7771  143.5172  154.9002 C.ar    1  UNL1        0.0135
     14 C         136.2462  142.6961  153.7627 C.ar    1  UNL1        0.0683
     15 CL        135.9313  143.3490  152.4494 Cl      1  UNL1       -0.0814
     16 C         136.0302  141.2222  153.9384 C.ar    1  UNL1        0.0694
     17 CL        135.4993  140.4011  152.8008 Cl      1  UNL1       -0.0813
     18 C         136.3451  140.5694  155.2516 C.ar    1  UNL1        0.0270
     19 C         139.8322  137.6068  163.2226 C.3     1  UNL1        0.0735
     20 C         139.3993  138.2539  164.5047 C.3     1  UNL1        0.0320
     21 C         138.4992  137.5158  165.4508 C.3     1  UNL1        0.0042
     22 C         138.0664  138.1628  166.7329 C.3     1  UNL1        0.0174
     23 C         138.5336  139.5480  167.0691 C.3     1  UNL1        0.0724
     24 N         139.4337  140.2861  166.1230 N.3     1  UNL1       -0.2689
     25 C         139.8666  139.6390  164.8408 C.3     1  UNL1        0.0737
     26 C         139.9010  141.6713  166.4591 C.3     1  UNL1        0.0991
     27 C         140.8158  141.8914  167.6274 C.ar    1  UNL1       -0.0061
     28 C         140.5298  142.9906  168.6072 C.ar    1  UNL1       -0.0029
     29 C         141.4446  143.2108  169.7754 C.ar    1  UNL1       -0.0003
     30 C         142.6453  142.3318  169.9638 C.ar    1  UNL1       -0.0000
     31 C         142.9313  141.2326  168.9840 C.ar    1  UNL1       -0.0003
     32 C         142.0165  141.0124  167.8158 C.ar    1  UNL1       -0.0029
@<TRIPOS>BOND
     1     1     2    2
     2     2     3   am
     3     3    11    1
     4    11    12   ar
     5    12    13   ar
     6    13    14   ar
     7    14    15    1
     8    14    16   ar
     9    16    17    1
    10    16    18   ar
    11     2     4   am
    12     4     5    1
    13     5     6    1
    14     6     7    1
    15     7    19    1
    16    20    19    1
    17    20    21    1
    18    21    22    1
    19    22    23    1
    20    23    24    1
    21    24    26    1
    22    26    27    1
    23    27    28   ar
    24    28    29   ar
    25    29    30   ar
    26    30    31   ar
    27    31    32   ar
    28    24    25    1
    29     7     8    1
    30     8     9    1
    31    18    11   ar
    32     9     4    1
    33    25    20    1
    34    32    27   ar
    35     3    10    1
@<TRIPOS>MOLECULE
*****
 32 35 0 0 0
SMALL
GASTEIGER

@<TRIPOS>ATOM
      1 O         142.1166  140.5748  157.3424 O.2     1  UNL1       -0.2522
      2 C         143.0659  139.9512  158.3222 C.2     1  UNL1        0.3078
      3 N         144.5404  139.9600  158.0474 N.am    1  UNL1       -0.2681
      4 N         142.5405  139.3187  159.5768 N.am    1  UNL1       -0.2611
      5 C         141.0659  139.3098  159.8516 C.3     1  UNL1        0.1123
      6 C         140.5406  138.6774  161.1062 C.3     1  UNL1        0.0940
      7 N         141.4899  138.0537  162.0860 N.3     1  UNL1       -0.2697
      8 C         142.9644  138.0625  161.8112 C.3     1  UNL1        0.0940
      9 C         143.4897  138.6950  160.5566 C.3     1  UNL1        0.1123
     10 H         145.1634  139.5507  158.6905 H       1  UNL1        0.1564
     11 C         145.0658  140.5925  156.7928 C.ar    1  UNL1        0.0525
     12 C         145.7479  141.9270  156.8545 C.ar    1  UNL1        0.0156
     13 C         146.2732  142.5594  155.5999 C.ar    1  UNL1        0.0135
     14 C         146.1165  141.8573  154.2836 C.ar    1  UNL1        0.0683
     15 CL        146.6418  142.4898  153.0290 Cl      1  UNL1       -0.0814
     16 C         145.4343  140.5229  154.2220 C.ar    1  UNL1        0.0694
     17 CL        145.2775  139.8208  152.9057 Cl      1  UNL1       -0.0813
     18 C         144.9090  139.8904  155.4765 C.ar    1  UNL1        0.0270
     19 C         140.9645  137.4212  163.3406 C.3     1  UNL1        0.0735
     20 C         140.2627  138.2607  164.3666 C.3     1  UNL1        0.0320
     21 C         139.0890  137.7034  165.1162 C.3     1  UNL1        0.0042
     22 C         138.3873  138.5428  166.1423 C.3     1  UNL1        0.0174
     23 C         138.8592  139.9396  166.4187 C.3     1  UNL1        0.0724
     24 N         140.0329  140.4969  165.6691 N.3     1  UNL1       -0.2689
     25 C         140.7346  139.6574  164.6430 C.3     1  UNL1        0.0737
     26 C         140.5048  141.8936  165.9455 C.3     1  UNL1        0.0991
     27 C         141.1410  142.2233  167.2634 C.ar    1  UNL1       -0.0061
     28 C         140.3566  142.9530  168.3132 C.ar    1  UNL1       -0.0029
     29 C         140.9927  143.2827  169.6310 C.ar    1  UNL1       -0.0003
     30 C         142.4134  142.8828  169.8989 C.ar    1  UNL1       -0.0000
     31 C         143.1978  142.1531  168.8490 C.ar    1  UNL1       -0.0003
     32 C         142.5617  141.8234  167.5312 C.ar    1  UNL1       -0.0029
@<TRIPOS>BOND
     1     1     2    2
     2     2     3   am
     3     3    11    1
     4    11    12   ar
     5    12    13   ar
     6    13    14   ar
     7    14    15    1
     8    14    16   ar
     9    16    17    1
    10    16    18   ar
    11     2     4   am
    12     4     5    1
    13     5     6    1
    14     6     7    1
    15     7    19    1
    16    20    19    1
    17    20    21    1
    18    21    22    1
    19    22    23    1
    20    23    24    1
    21    24    26    1
    22    26    27    1
    23    27    28   ar
    24    28    29   ar
    25    29    30   ar
    26    30    31   ar
    27    31    32   ar
    28    24    25    1
    29     7     8    1
    30     8     9    1
    31    18    11   ar
    32     9     4    1
    33    25    20    1
    34    32    27   ar
    35     3    10    1
@<TRIPOS>MOLECULE
*****
 32 35 0 0 0
SMALL
GASTEIGER

@<TRIPOS>ATOM
      1 O         143.0933  139.5312  157.2187 O.2     1  UNL1       -0.2522
      2 C         143.1142  138.5540  158.3565 C.2     1  UNL1        0.3078
      3 N         142.7573  137.1169  158.1175 N.am    1  UNL1       -0.2681
      4 N         143.4919  139.0140  159.7334 N.am    1  UNL1       -0.2611
      5 C         143.8488  140.4512  159.9724 C.3     1  UNL1        0.1123
      6 C         144.2265  140.9111  161.3493 C.3     1  UNL1        0.0940
      7 N         144.2474  139.9339  162.4871 N.3     1  UNL1       -0.2697
      8 C         143.8905  138.4968  162.2480 C.3     1  UNL1        0.0940
      9 C         143.5128  138.0368  160.8712 C.3     1  UNL1        0.1123
     10 H         142.7710  136.4755  158.8642 H       1  UNL1        0.1564
     11 C         142.3796  136.6569  156.7405 C.ar    1  UNL1        0.0525
     12 C         143.3587  135.8749  155.9161 C.ar    1  UNL1        0.0156
     13 C         142.9810  135.4149  154.5393 C.ar    1  UNL1        0.0135
     14 C         141.6241  135.7369  153.9869 C.ar    1  UNL1        0.0683
     15 CL        141.2463  135.2769  152.6100 Cl      1  UNL1       -0.0814
     16 C         140.6449  136.5189  154.8113 C.ar    1  UNL1        0.0694
     17 CL        139.2880  136.8409  154.2590 Cl      1  UNL1       -0.0813
     18 C         141.0227  136.9789  156.1882 C.ar    1  UNL1        0.0270
     19 C         144.6251  140.3939  163.8640 C.3     1  UNL1        0.0735
     20 C         143.6089  140.3722  164.9671 C.3     1  UNL1        0.0320
     21 C         143.5096  139.1800  165.8719 C.3     1  UNL1        0.0042
     22 C         142.4934  139.1582  166.9750 C.3     1  UNL1        0.0174
     23 C         141.5765  140.3288  167.1733 C.3     1  UNL1        0.0724
     24 N         141.6759  141.5210  166.2685 N.3     1  UNL1       -0.2689
     25 C         142.6921  141.5427  165.1654 C.3     1  UNL1        0.0737
     26 C         140.7591  142.6915  166.4668 C.3     1  UNL1        0.0991
     27 C         139.7291  143.0220  165.4275 C.ar    1  UNL1       -0.0061
     28 C         139.6960  144.3898  164.8128 C.ar    1  UNL1       -0.0029
     29 C         138.6661  144.7203  163.7736 C.ar    1  UNL1       -0.0003
     30 C         137.6693  143.6830  163.3491 C.ar    1  UNL1       -0.0000
     31 C         137.7024  142.3151  163.9639 C.ar    1  UNL1       -0.0003
     32 C         138.7323  141.9846  165.0031 C.ar    1  UNL1       -0.0029
@<TRIPOS>BOND
     1     1     2    2
     2     2     3   am
     3     3    11    1
     4    11    12   ar
     5    12    13   ar
     6    13    14   ar
     7    14    15    1
     8    14    16   ar
     9    16    17    1
    10    16    18   ar
    11     2     4   am
    12     4     5    1
    13     5     6    1
    14     6     7    1
    15     7    19    1
    16    20    19    1
    17    20    21    1
    18    21    22    1
    19    22    23    1
    20    23    24    1
    21    24    26    1
    22    26    27    1
    23    27    28   ar
    24    28    29   ar
    25    29    30   ar
    26    30    31   ar
    27    31    32   ar
    28    24    25    1
    29     7     8    1
    30     8     9    1
    31    18    11   ar
    32     9     4    1
    33    25    20    1
    34    32    27   ar
    35     3    10    1
@<TRIPOS>MOLECULE
*****
 32 35 0 0 0
SMALL
GASTEIGER

@<TRIPOS>ATOM
      1 O         142.1425  146.1618  157.7464 O.2     1  UNL1       -0.2522
      2 C         140.9265  145.2960  157.8929 C.2     1  UNL1        0.3078
      3 N         139.7007  145.5800  157.0764 N.am    1  UNL1       -0.2681
      4 N         140.9362  144.1460  158.8561 N.am    1  UNL1       -0.2611
      5 C         142.1620  143.8620  159.6726 C.3     1  UNL1        0.1123
      6 C         142.1716  142.7120  160.6357 C.3     1  UNL1        0.0940
      7 N         140.9556  141.8462  160.7822 N.3     1  UNL1       -0.2697
      8 C         139.7298  142.1302  159.9657 C.3     1  UNL1        0.0940
      9 C         139.7201  143.2801  159.0026 C.3     1  UNL1        0.1123
     10 H         138.9026  145.0117  157.1726 H       1  UNL1        0.1564
     11 C         139.6910  146.7300  156.1132 C.ar    1  UNL1        0.0525
     12 C         140.3947  146.6094  154.7941 C.ar    1  UNL1        0.0156
     13 C         140.3849  147.7593  153.8310 C.ar    1  UNL1        0.0135
     14 C         139.6715  149.0298  154.1871 C.ar    1  UNL1        0.0683
     15 CL        139.6618  150.1798  153.2240 Cl      1  UNL1       -0.0814
     16 C         138.9678  149.1504  155.5063 C.ar    1  UNL1        0.0694
     17 CL        138.2544  150.4210  155.8624 Cl      1  UNL1       -0.0813
     18 C         138.9776  148.0005  156.4694 C.ar    1  UNL1        0.0270
     19 C         140.9653  140.6962  161.7454 C.3     1  UNL1        0.0735
     20 C         141.7263  140.8032  163.0335 C.3     1  UNL1        0.0320
     21 C         143.0096  140.0472  163.2115 C.3     1  UNL1        0.0042
     22 C         143.7707  140.1542  164.4996 C.3     1  UNL1        0.0174
     23 C         143.2484  141.0172  165.6099 C.3     1  UNL1        0.0724
     24 N         141.9651  141.7732  165.4319 N.3     1  UNL1       -0.2689
     25 C         141.2041  141.6662  164.1437 C.3     1  UNL1        0.0737
     26 C         141.4428  142.6361  166.5421 C.3     1  UNL1        0.0991
     27 C         140.6937  142.0167  167.6845 C.ar    1  UNL1       -0.0061
     28 C         140.1210  140.6373  167.5458 C.ar    1  UNL1       -0.0029
     29 C         139.3719  140.0179  168.6882 C.ar    1  UNL1       -0.0003
     30 C         139.1956  140.7778  169.9693 C.ar    1  UNL1       -0.0000
     31 C         139.7683  142.1572  170.1081 C.ar    1  UNL1       -0.0003
     32 C         140.5174  142.7766  168.9657 C.ar    1  UNL1       -0.0029
@<TRIPOS>BOND
     1     1     2    2
     2     2     3   am
     3     3    11    1
     4    11    12   ar
     5    12    13   ar
     6    13    14   ar
     7    14    15    1
     8    14    16   ar
     9    16    17    1
    10    16    18   ar
    11     2     4   am
    12     4     5    1
    13     5     6    1
    14     6     7    1
    15     7    19    1
    16    20    19    1
    17    20    21    1
    18    21    22    1
    19    22    23    1
    20    23    24    1
    21    24    26    1
    22    26    27    1
    23    27    28   ar
    24    28    29   ar
    25    29    30   ar
    26    30    31   ar
    27    31    32   ar
    28    24    25    1
    29     7     8    1
    30     8     9    1
    31    18    11   ar
    32     9     4    1
    33    25    20    1
    34    32    27   ar
    35     3    10    1
@<TRIPOS>MOLECULE
*****
 32 35 0 0 0
SMALL
GASTEIGER

@<TRIPOS>ATOM
      1 O         140.5383  137.9733  157.7959 O.2     1  UNL1       -0.2522
      2 C         141.9214  138.4274  158.1575 C.2     1  UNL1        0.3078
      3 N         143.1157  137.7279  157.5793 N.am    1  UNL1       -0.2681
      4 N         142.1102  139.5811  159.0975 N.am    1  UNL1       -0.2611
      5 C         140.9160  140.2806  159.6758 C.3     1  UNL1        0.1123
      6 C         141.1049  141.4342  160.6157 C.3     1  UNL1        0.0940
      7 N         142.4880  141.8883  160.9773 N.3     1  UNL1       -0.2697
      8 C         143.6822  141.1888  160.3991 C.3     1  UNL1        0.0940
      9 C         143.4933  140.0352  159.4592 C.3     1  UNL1        0.1123
     10 H         144.0234  138.0260  157.8167 H       1  UNL1        0.1564
     11 C         142.9268  136.5743  156.6393 C.ar    1  UNL1        0.0525
     12 C         142.6895  136.8270  155.1799 C.ar    1  UNL1        0.0156
     13 C         142.5007  135.6733  154.2401 C.ar    1  UNL1        0.0135
     14 C         142.5492  134.2670  154.7596 C.ar    1  UNL1        0.0683
     15 CL        142.3604  133.1133  153.8196 Cl      1  UNL1       -0.0814
     16 C         142.7865  134.0143  156.2189 C.ar    1  UNL1        0.0694
     17 CL        142.8350  132.6079  156.7384 Cl      1  UNL1       -0.0813
     18 C         142.9753  135.1679  157.1588 C.ar    1  UNL1        0.0270
     19 C         142.6768  143.0420  161.9173 C.3     1  UNL1        0.0735
     20 C         141.6712  143.2996  163.0000 C.3     1  UNL1        0.0320
     21 C         140.7058  144.4403  162.8710 C.3     1  UNL1        0.0042
     22 C         139.7001  144.6979  163.9537 C.3     1  UNL1        0.0174
     23 C         139.6599  143.8148  165.1655 C.3     1  UNL1        0.0724
     24 N         140.6253  142.6740  165.2946 N.3     1  UNL1       -0.2689
     25 C         141.6310  142.4165  164.2118 C.3     1  UNL1        0.0737
     26 C         140.5852  141.7909  166.5063 C.3     1  UNL1        0.0991
     27 C         141.2576  142.2265  167.7745 C.ar    1  UNL1       -0.0061
     28 C         140.5219  143.0917  168.7545 C.ar    1  UNL1       -0.0029
     29 C         141.1942  143.5273  170.0226 C.ar    1  UNL1       -0.0003
     30 C         142.6022  143.0977  170.3108 C.ar    1  UNL1       -0.0000
     31 C         143.3378  142.2325  169.3308 C.ar    1  UNL1       -0.0003
     32 C         142.6655  141.7969  168.0627 C.ar    1  UNL1       -0.0029
@<TRIPOS>BOND
     1     1     2    2
     2     2     3   am
     3     3    11    1
     4    11    12   ar
     5    12    13   ar
     6    13    14   ar
     7    14    15    1
     8    14    16   ar
     9    16    17    1
    10    16    18   ar
    11     2     4   am
    12     4     5    1
    13     5     6    1
    14     6     7    1
    15     7    19    1
    16    20    19    1
    17    20    21    1
    18    21    22    1
    19    22    23    1
    20    23    24    1
    21    24    26    1
    22    26    27    1
    23    27    28   ar
    24    28    29   ar
    25    29    30   ar
    26    30    31   ar
    27    31    32   ar
    28    24    25    1
    29     7     8    1
    30     8     9    1
    31    18    11   ar
    32     9     4    1
    33    25    20    1
    34    32    27   ar
    35     3    10    1
@<TRIPOS>MOLECULE
*****
 32 35 0 0 0
SMALL
GASTEIGER

@<TRIPOS>ATOM
      1 O         143.6572  139.4778  158.3112 O.2     1  UNL1       -0.2522
      2 C         144.0636  140.4523  159.3767 C.2     1  UNL1        0.3078
      3 N         144.5458  141.8209  158.9969 N.am    1  UNL1       -0.2681
      4 N         143.9877  140.0580  160.8220 N.am    1  UNL1       -0.2611
      5 C         143.5054  138.6894  161.2017 C.3     1  UNL1        0.1123
      6 C         143.4295  138.2952  162.6470 C.3     1  UNL1        0.0940
      7 N         143.8359  139.2697  163.7125 N.3     1  UNL1       -0.2697
      8 C         144.3181  140.6383  163.3328 C.3     1  UNL1        0.0940
      9 C         144.3940  141.0325  161.8875 C.3     1  UNL1        0.1123
     10 H         144.8125  142.4604  159.6963 H       1  UNL1        0.1564
     11 C         144.6217  142.2151  157.5516 C.ar    1  UNL1        0.0525
     12 C         143.3861  142.6679  156.8318 C.ar    1  UNL1        0.0156
     13 C         143.4621  143.0621  155.3866 C.ar    1  UNL1        0.0135
     14 C         144.7737  143.0036  154.6611 C.ar    1  UNL1        0.0683
     15 CL        144.8496  143.3978  153.2158 Cl      1  UNL1       -0.0814
     16 C         146.0093  142.5508  155.3809 C.ar    1  UNL1        0.0694
     17 CL        147.3209  142.4922  154.6555 Cl      1  UNL1       -0.0813
     18 C         145.9333  142.1566  156.8262 C.ar    1  UNL1        0.0270
     19 C         143.7599  138.8754  165.1578 C.3     1  UNL1        0.0735
     20 C         142.6083  139.3359  166.0014 C.3     1  UNL1        0.0320
     21 C         142.7449  139.3859  167.4943 C.3     1  UNL1        0.0042
     22 C         141.5932  139.8464  168.3378 C.3     1  UNL1        0.0174
     23 C         140.3049  140.2570  167.6884 C.3     1  UNL1        0.0724
     24 N         140.1683  140.2070  166.1955 N.3     1  UNL1       -0.2689
     25 C         141.3200  139.7465  165.3519 C.3     1  UNL1        0.0737
     26 C         138.8800  140.6176  165.5461 C.3     1  UNL1        0.0991
     27 C         138.7579  141.9715  164.9119 C.ar    1  UNL1       -0.0061
     28 C         139.5709  143.1196  165.4324 C.ar    1  UNL1       -0.0029
     29 C         139.4488  144.4734  164.7983 C.ar    1  UNL1       -0.0003
     30 C         138.5137  144.6792  163.6438 C.ar    1  UNL1       -0.0000
     31 C         137.7006  143.5312  163.1233 C.ar    1  UNL1       -0.0003
     32 C         137.8227  142.1773  163.7573 C.ar    1  UNL1       -0.0029
@<TRIPOS>BOND
     1     1     2    2
     2     2     3   am
     3     3    11    1
     4    11    12   ar
     5    12    13   ar
     6    13    14   ar
     7    14    15    1
     8    14    16   ar
     9    16    17    1
    10    16    18   ar
    11     2     4   am
    12     4     5    1
    13     5     6    1
    14     6     7    1
    15     7    19    1
    16    20    19    1
    17    20    21    1
    18    21    22    1
    19    22    23    1
    20    23    24    1
    21    24    26    1
    22    26    27    1
    23    27    28   ar
    24    28    29   ar
    25    29    30   ar
    26    30    31   ar
    27    31    32   ar
    28    24    25    1
    29     7     8    1
    30     8     9    1
    31    18    11   ar
    32     9     4    1
    33    25    20    1
    34    32    27   ar
    35     3    10    1
