@<TRIPOS>MOLECULE
*****
 23 26 0 0 0
SMALL
GASTEIGER

@<TRIPOS>ATOM
      1 C         138.4283  144.2668  162.5631 C.ar    1  UNL1        0.1402
      2 C         138.6378  144.0069  164.0254 C.ar    1  UNL1        0.0370
      3 C         138.6281  142.6002  164.5461 C.ar    1  UNL1        0.0046
      4 C         138.4090  141.4534  163.6044 C.ar    1  UNL1        0.0180
      5 C         138.3993  140.0467  164.1251 C.ar    1  UNL1        0.0061
      6 C         138.1803  138.8999  163.1834 C.ar    1  UNL1        0.0208
      7 C         137.9708  139.1598  161.7209 C.ar    1  UNL1        0.0988
      8 N         137.9805  140.5665  161.2003 N.ar    1  UNL1       -0.2437
      9 C         138.1996  141.7133  162.1421 C.ar    1  UNL1        0.0843
     10 C         138.2093  143.1200  161.6214 C.ar    1  UNL1        0.0560
     11 C         138.6088  139.7868  165.5874 C.ar    1  UNL1        0.0402
     12 C         137.7632  138.9030  166.4558 C.ar    1  UNL1        0.1220
     13 N         138.3323  138.9350  167.8433 N.ar    1  UNL1       -0.1635
     14 N         139.5296  139.8386  167.8325 N.ar    1  UNL1       -0.2281
     15 C         139.7005  140.3650  166.4383 C.ar    1  UNL1        0.1019
     16 C         140.4028  140.1594  169.0092 C.ar    1  UNL1        0.0828
     17 C         141.8086  139.6393  169.0639 C.ar    1  UNL1        0.0191
     18 C         142.6818  139.9601  170.2406 C.ar    1  UNL1        0.0015
     19 C         142.1490  140.8011  171.3627 C.ar    1  UNL1        0.0001
     20 C         140.7432  141.3211  171.3080 C.ar    1  UNL1        0.0015
     21 C         139.8701  141.0003  170.1312 C.ar    1  UNL1        0.0191
     22 C         139.6978  146.2530  161.4706 C.3     1  UNL1        0.2525
     23 O         138.4380  145.6735  162.0424 O.3     1  UNL1       -0.4714
@<TRIPOS>BOND
     1    22    23    1
     2    23     1    1
     3     1     2   ar
     4     2     3   ar
     5     3     4   ar
     6     4     5   ar
     7     5    11    1
     8    11    12   ar
     9    12    13   ar
    10    13    14   ar
    11    14    16    1
    12    16    17   ar
    13    17    18   ar
    14    18    19   ar
    15    19    20   ar
    16    20    21   ar
    17    14    15   ar
    18     5     6   ar
    19     6     7   ar
    20     7     8   ar
    21     8     9   ar
    22     9    10   ar
    23    10     1   ar
    24     9     4   ar
    25    15    11   ar
    26    21    16   ar
@<TRIPOS>MOLECULE
*****
 23 26 0 0 0
SMALL
GASTEIGER

@<TRIPOS>ATOM
      1 C         143.3680  143.0499  158.8008 C.ar    1  UNL1        0.1402
      2 C         144.0666  142.5436  160.0278 C.ar    1  UNL1        0.0370
      3 C         143.6079  142.9824  161.3869 C.ar    1  UNL1        0.0046
      4 C         142.4506  143.9274  161.5189 C.ar    1  UNL1        0.0180
      5 C         141.9918  144.3661  162.8780 C.ar    1  UNL1        0.0061
      6 C         140.8345  145.3111  163.0101 C.ar    1  UNL1        0.0208
      7 C         140.1358  145.8174  161.7830 C.ar    1  UNL1        0.0988
      8 N         140.5945  145.3787  160.4240 N.ar    1  UNL1       -0.2437
      9 C         141.7520  144.4336  160.2919 C.ar    1  UNL1        0.0843
     10 C         142.2107  143.9949  158.9329 C.ar    1  UNL1        0.0560
     11 C         142.6905  143.8598  164.1050 C.ar    1  UNL1        0.0402
     12 C         144.0791  144.2221  164.5417 C.ar    1  UNL1        0.1220
     13 N         144.3700  143.4886  165.8174 N.ar    1  UNL1       -0.1635
     14 N         143.1612  142.6730  166.1692 N.ar    1  UNL1       -0.2281
     15 C         142.1232  142.9024  165.1108 C.ar    1  UNL1        0.1019
     16 C         143.0160  141.7840  167.3686 C.ar    1  UNL1        0.0828
     17 C         143.3057  142.3204  168.7391 C.ar    1  UNL1        0.0191
     18 C         143.1605  141.4314  169.9385 C.ar    1  UNL1        0.0015
     19 C         142.7254  140.0061  169.7674 C.ar    1  UNL1        0.0001
     20 C         142.4357  139.4698  168.3969 C.ar    1  UNL1        0.0015
     21 C         142.5809  140.3588  167.1975 C.ar    1  UNL1        0.0191
     22 C         145.2338  142.1306  157.2440 C.3     1  UNL1        0.2525
     23 O         143.8268  142.6112  157.4417 O.3     1  UNL1       -0.4714
@<TRIPOS>BOND
     1    22    23    1
     2    23     1    1
     3     1     2   ar
     4     2     3   ar
     5     3     4   ar
     6     4     5   ar
     7     5    11    1
     8    11    12   ar
     9    12    13   ar
    10    13    14   ar
    11    14    16    1
    12    16    17   ar
    13    17    18   ar
    14    18    19   ar
    15    19    20   ar
    16    20    21   ar
    17    14    15   ar
    18     5     6   ar
    19     6     7   ar
    20     7     8   ar
    21     8     9   ar
    22     9    10   ar
    23    10     1   ar
    24     9     4   ar
    25    15    11   ar
    26    21    16   ar
@<TRIPOS>MOLECULE
*****
 23 26 0 0 0
SMALL
GASTEIGER

@<TRIPOS>ATOM
      1 C         141.7054  138.0359  161.1636 C.ar    1  UNL1        0.1402
      2 C         141.8748  137.9453  162.6513 C.ar    1  UNL1        0.0370
      3 C         140.9073  138.6437  163.5602 C.ar    1  UNL1        0.0046
      4 C         139.7704  139.4327  162.9816 C.ar    1  UNL1        0.0180
      5 C         138.8030  140.1311  163.8906 C.ar    1  UNL1        0.0061
      6 C         137.6661  140.9201  163.3119 C.ar    1  UNL1        0.0208
      7 C         137.4966  141.0108  161.8242 C.ar    1  UNL1        0.0988
      8 N         138.4641  140.3124  160.9153 N.ar    1  UNL1       -0.2437
      9 C         139.6010  139.5233  161.4940 C.ar    1  UNL1        0.0843
     10 C         140.5685  138.8249  160.5850 C.ar    1  UNL1        0.0560
     11 C         138.9724  140.0405  165.3782 C.ar    1  UNL1        0.0402
     12 C         138.2880  139.0615  166.2855 C.ar    1  UNL1        0.1220
     13 N         138.7486  139.3289  167.6878 N.ar    1  UNL1       -0.1635
     14 N         139.7176  140.4732  167.6472 N.ar    1  UNL1       -0.2281
     15 C         139.8559  140.9130  166.2197 C.ar    1  UNL1        0.1019
     16 C         140.4242  141.0724  168.8268 C.ar    1  UNL1        0.0828
     17 C         140.7111  142.5444  168.8609 C.ar    1  UNL1        0.0191
     18 C         141.4177  143.1436  170.0405 C.ar    1  UNL1        0.0015
     19 C         141.8374  142.2710  171.1861 C.ar    1  UNL1        0.0001
     20 C         141.5506  140.7991  171.1520 C.ar    1  UNL1        0.0015
     21 C         140.8440  140.1999  169.9723 C.ar    1  UNL1        0.0191
     22 C         142.8540  137.8138  158.8439 C.3     1  UNL1        0.2525
     23 O         142.6729  137.3375  160.2547 O.3     1  UNL1       -0.4714
@<TRIPOS>BOND
     1    22    23    1
     2    23     1    1
     3     1     2   ar
     4     2     3   ar
     5     3     4   ar
     6     4     5   ar
     7     5    11    1
     8    11    12   ar
     9    12    13   ar
    10    13    14   ar
    11    14    16    1
    12    16    17   ar
    13    17    18   ar
    14    18    19   ar
    15    19    20   ar
    16    20    21   ar
    17    14    15   ar
    18     5     6   ar
    19     6     7   ar
    20     7     8   ar
    21     8     9   ar
    22     9    10   ar
    23    10     1   ar
    24     9     4   ar
    25    15    11   ar
    26    21    16   ar
@<TRIPOS>MOLECULE
*****
 23 26 0 0 0
SMALL
GASTEIGER

@<TRIPOS>ATOM
      1 C         138.4391  139.8564  159.2587 C.ar    1  UNL1        0.1402
      2 C         137.8634  140.1305  160.6164 C.ar    1  UNL1        0.0370
      3 C         138.6278  139.7427  161.8474 C.ar    1  UNL1        0.0046
      4 C         139.9678  139.0808  161.7207 C.ar    1  UNL1        0.0180
      5 C         140.7322  138.6930  162.9517 C.ar    1  UNL1        0.0061
      6 C         142.0722  138.0311  162.8250 C.ar    1  UNL1        0.0208
      7 C         142.6480  137.7570  161.4673 C.ar    1  UNL1        0.0988
      8 N         141.8836  138.1448  160.2363 N.ar    1  UNL1       -0.2437
      9 C         140.5435  138.8067  160.3630 C.ar    1  UNL1        0.0843
     10 C         139.7791  139.1945  159.1320 C.ar    1  UNL1        0.0560
     11 C         140.1565  138.9671  164.3094 C.ar    1  UNL1        0.0402
     12 C         139.0299  138.2178  164.9572 C.ar    1  UNL1        0.1220
     13 N         138.7834  138.8262  166.3059 N.ar    1  UNL1       -0.1635
     14 N         139.7576  139.9516  166.4918 N.ar    1  UNL1       -0.2281
     15 C         140.6063  140.0386  165.2579 C.ar    1  UNL1        0.1019
     16 C         139.8645  140.8348  167.6995 C.ar    1  UNL1        0.0828
     17 C         140.4453  142.2119  167.5725 C.ar    1  UNL1        0.0191
     18 C         140.5521  143.0951  168.7802 C.ar    1  UNL1        0.0015
     19 C         140.0782  142.6011  170.1149 C.ar    1  UNL1        0.0001
     20 C         139.4975  141.2240  170.2418 C.ar    1  UNL1        0.0015
     21 C         139.3907  140.3408  169.0341 C.ar    1  UNL1        0.0191
     22 C         137.6907  141.6666  157.5520 C.3     1  UNL1        0.2525
     23 O         137.6747  140.2441  158.0277 O.3     1  UNL1       -0.4714
@<TRIPOS>BOND
     1    22    23    1
     2    23     1    1
     3     1     2   ar
     4     2     3   ar
     5     3     4   ar
     6     4     5   ar
     7     5    11    1
     8    11    12   ar
     9    12    13   ar
    10    13    14   ar
    11    14    16    1
    12    16    17   ar
    13    17    18   ar
    14    18    19   ar
    15    19    20   ar
    16    20    21   ar
    17    14    15   ar
    18     5     6   ar
    19     6     7   ar
    20     7     8   ar
    21     8     9   ar
    22     9    10   ar
    23    10     1   ar
    24     9     4   ar
    25    15    11   ar
    26    21    16   ar
@<TRIPOS>MOLECULE
*****
 23 26 0 0 0
SMALL
GASTEIGER

@<TRIPOS>ATOM
      1 C         142.7444  139.4999  159.8908 C.ar    1  UNL1        0.1402
      2 C         142.9598  140.5363  160.9536 C.ar    1  UNL1        0.0370
      3 C         141.9394  140.7229  162.0370 C.ar    1  UNL1        0.0046
      4 C         140.7035  139.8731  162.0577 C.ar    1  UNL1        0.0180
      5 C         139.6830  140.0598  163.1411 C.ar    1  UNL1        0.0061
      6 C         138.4471  139.2100  163.1618 C.ar    1  UNL1        0.0208
      7 C         138.2317  138.1736  162.0990 C.ar    1  UNL1        0.0988
      8 N         139.2521  137.9869  161.0156 N.ar    1  UNL1       -0.2437
      9 C         140.4881  138.8367  160.9949 C.ar    1  UNL1        0.0843
     10 C         141.5086  138.6501  159.9115 C.ar    1  UNL1        0.0560
     11 C         139.8984  141.0961  164.2038 C.ar    1  UNL1        0.0402
     12 C         139.3764  142.5023  164.1828 C.ar    1  UNL1        0.1220
     13 N         139.8290  143.1836  165.4402 N.ar    1  UNL1       -0.1635
     14 N         140.6307  142.1986  166.2384 N.ar    1  UNL1       -0.2281
     15 C         140.6736  140.9084  165.4742 C.ar    1  UNL1        0.1019
     16 C         141.2762  142.4581  167.5673 C.ar    1  UNL1        0.0828
     17 C         142.7052  142.0638  167.7967 C.ar    1  UNL1        0.0191
     18 C         143.3506  142.3233  169.1256 C.ar    1  UNL1        0.0015
     19 C         142.5672  142.9771  170.2251 C.ar    1  UNL1        0.0001
     20 C         141.1383  143.3713  169.9956 C.ar    1  UNL1        0.0015
     21 C         140.4928  143.1118  168.6667 C.ar    1  UNL1        0.0191
     22 C         143.4536  139.7373  157.4027 C.3     1  UNL1        0.2525
     23 O         143.7649  139.3132  158.8074 O.3     1  UNL1       -0.4714
@<TRIPOS>BOND
     1    22    23    1
     2    23     1    1
     3     1     2   ar
     4     2     3   ar
     5     3     4   ar
     6     4     5   ar
     7     5    11    1
     8    11    12   ar
     9    12    13   ar
    10    13    14   ar
    11    14    16    1
    12    16    17   ar
    13    17    18   ar
    14    18    19   ar
    15    19    20   ar
    16    20    21   ar
    17    14    15   ar
    18     5     6   ar
    19     6     7   ar
    20     7     8   ar
    21     8     9   ar
    22     9    10   ar
    23    10     1   ar
    24     9     4   ar
    25    15    11   ar
    26    21    16   ar
@<TRIPOS>MOLECULE
*****
 23 26 0 0 0
SMALL
GASTEIGER

@<TRIPOS>ATOM
      1 C         141.8697  141.5850  167.9409 C.ar    1  UNL1        0.1402
      2 C         142.3931  141.2231  166.5826 C.ar    1  UNL1        0.0370
      3 C         141.6285  140.2687  165.7140 C.ar    1  UNL1        0.0046
      4 C         140.3405  139.6762  166.2037 C.ar    1  UNL1        0.0180
      5 C         139.5758  138.7218  165.3352 C.ar    1  UNL1        0.0061
      6 C         138.2878  138.1292  165.8249 C.ar    1  UNL1        0.0208
      7 C         137.7643  138.4911  167.1832 C.ar    1  UNL1        0.0988
      8 N         138.5289  139.4455  168.0518 N.ar    1  UNL1       -0.2437
      9 C         139.8170  140.0381  167.5620 C.ar    1  UNL1        0.0843
     10 C         140.5816  140.9925  168.4306 C.ar    1  UNL1        0.0560
     11 C         140.0993  138.3599  163.9769 C.ar    1  UNL1        0.0402
     12 C         141.0737  137.2610  163.6714 C.ar    1  UNL1        0.1220
     13 N         141.3168  137.2552  162.1913 N.ar    1  UNL1       -0.1635
     14 N         140.4928  138.3505  161.5818 N.ar    1  UNL1       -0.2281
     15 C         139.7402  139.0332  162.6854 C.ar    1  UNL1        0.1019
     16 C         140.4319  138.7015  160.1248 C.ar    1  UNL1        0.0828
     17 C         141.6081  138.4232  159.2365 C.ar    1  UNL1        0.0191
     18 C         141.5472  138.7742  157.7795 C.ar    1  UNL1        0.0015
     19 C         140.3100  139.4034  157.2106 C.ar    1  UNL1        0.0001
     20 C         139.1339  139.6816  158.0989 C.ar    1  UNL1        0.0015
     21 C         139.1948  139.3307  159.5560 C.ar    1  UNL1        0.0191
     22 C         143.5845  142.0148  169.8447 C.3     1  UNL1        0.2525
     23 O         142.6343  142.5395  168.8095 O.3     1  UNL1       -0.4714
@<TRIPOS>BOND
     1    22    23    1
     2    23     1    1
     3     1     2   ar
     4     2     3   ar
     5     3     4   ar
     6     4     5   ar
     7     5    11    1
     8    11    12   ar
     9    12    13   ar
    10    13    14   ar
    11    14    16    1
    12    16    17   ar
    13    17    18   ar
    14    18    19   ar
    15    19    20   ar
    16    20    21   ar
    17    14    15   ar
    18     5     6   ar
    19     6     7   ar
    20     7     8   ar
    21     8     9   ar
    22     9    10   ar
    23    10     1   ar
    24     9     4   ar
    25    15    11   ar
    26    21    16   ar
@<TRIPOS>MOLECULE
*****
 23 26 0 0 0
SMALL
GASTEIGER

@<TRIPOS>ATOM
      1 C         138.7271  141.1536  160.3366 C.ar    1  UNL1        0.1402
      2 C         139.6188  140.5094  161.3563 C.ar    1  UNL1        0.0370
      3 C         140.4084  141.3600  162.3065 C.ar    1  UNL1        0.0046
      4 C         140.3064  142.8549  162.2370 C.ar    1  UNL1        0.0180
      5 C         141.0961  143.7055  163.1872 C.ar    1  UNL1        0.0061
      6 C         140.9941  145.2004  163.1177 C.ar    1  UNL1        0.0208
      7 C         140.1024  145.8447  162.0979 C.ar    1  UNL1        0.0988
      8 N         139.3128  144.9941  161.1477 N.ar    1  UNL1       -0.2437
      9 C         139.4148  143.4991  161.2173 C.ar    1  UNL1        0.0843
     10 C         138.6251  142.6485  160.2671 C.ar    1  UNL1        0.0560
     11 C         141.9878  143.0613  164.2069 C.ar    1  UNL1        0.0402
     12 C         143.4508  142.7735  164.0428 C.ar    1  UNL1        0.1220
     13 N         143.9402  142.1261  165.3042 N.ar    1  UNL1       -0.1635
     14 N         142.7797  142.0136  166.2480 N.ar    1  UNL1       -0.2281
     15 C         141.5730  142.5916  165.5698 C.ar    1  UNL1        0.1019
     16 C         142.8190  141.4263  167.6277 C.ar    1  UNL1        0.0828
     17 C         142.4579  139.9861  167.8402 C.ar    1  UNL1        0.0191
     18 C         142.4972  139.3988  169.2199 C.ar    1  UNL1        0.0015
     19 C         142.8976  140.2518  170.3870 C.ar    1  UNL1        0.0001
     20 C         143.2587  141.6920  170.1744 C.ar    1  UNL1        0.0015
     21 C         143.2194  142.2793  168.7947 C.ar    1  UNL1        0.0191
     22 C         137.9488  140.6100  157.9182 C.3     1  UNL1        0.2525
     23 O         137.9375  140.3030  159.3864 O.3     1  UNL1       -0.4714
@<TRIPOS>BOND
     1    22    23    1
     2    23     1    1
     3     1     2   ar
     4     2     3   ar
     5     3     4   ar
     6     4     5   ar
     7     5    11    1
     8    11    12   ar
     9    12    13   ar
    10    13    14   ar
    11    14    16    1
    12    16    17   ar
    13    17    18   ar
    14    18    19   ar
    15    19    20   ar
    16    20    21   ar
    17    14    15   ar
    18     5     6   ar
    19     6     7   ar
    20     7     8   ar
    21     8     9   ar
    22     9    10   ar
    23    10     1   ar
    24     9     4   ar
    25    15    11   ar
    26    21    16   ar
@<TRIPOS>MOLECULE
*****
 23 26 0 0 0
SMALL
GASTEIGER

@<TRIPOS>ATOM
      1 C         141.1220  141.6980  169.4407 C.ar    1  UNL1        0.1402
      2 C         141.6451  142.1676  168.1157 C.ar    1  UNL1        0.0370
      3 C         141.0545  141.6339  166.8443 C.ar    1  UNL1        0.0046
      4 C         139.9409  140.6305  166.8979 C.ar    1  UNL1        0.0180
      5 C         139.3503  140.0968  165.6266 C.ar    1  UNL1        0.0061
      6 C         138.2367  139.0934  165.6802 C.ar    1  UNL1        0.0208
      7 C         137.7135  138.6237  167.0053 C.ar    1  UNL1        0.0988
      8 N         138.3041  139.1574  168.2767 N.ar    1  UNL1       -0.2437
      9 C         139.4178  140.1609  168.2230 C.ar    1  UNL1        0.0843
     10 C         140.0083  140.6946  169.4943 C.ar    1  UNL1        0.0560
     11 C         139.8735  140.5664  164.3015 C.ar    1  UNL1        0.0402
     12 C         140.7915  139.8016  163.3947 C.ar    1  UNL1        0.1220
     13 N         141.0559  140.6458  162.1834 N.ar    1  UNL1       -0.1635
     14 N         140.3012  141.9325  162.3415 N.ar    1  UNL1       -0.2281
     15 C         139.5704  141.8834  163.6506 C.ar    1  UNL1        0.1019
     16 C         140.2808  143.0687  161.3624 C.ar    1  UNL1        0.0828
     17 C         140.2388  142.7887  159.8894 C.ar    1  UNL1        0.0191
     18 C         140.2185  143.9249  158.9103 C.ar    1  UNL1        0.0015
     19 C         140.2401  145.3411  159.4043 C.ar    1  UNL1        0.0001
     20 C         140.2820  145.6210  160.8773 C.ar    1  UNL1        0.0015
     21 C         140.3024  144.4848  161.8563 C.ar    1  UNL1        0.0191
     22 C         142.8932  143.1554  170.6607 C.3     1  UNL1        0.2525
     23 O         141.7125  142.2317  170.7120 O.3     1  UNL1       -0.4714
@<TRIPOS>BOND
     1    22    23    1
     2    23     1    1
     3     1     2   ar
     4     2     3   ar
     5     3     4   ar
     6     4     5   ar
     7     5    11    1
     8    11    12   ar
     9    12    13   ar
    10    13    14   ar
    11    14    16    1
    12    16    17   ar
    13    17    18   ar
    14    18    19   ar
    15    19    20   ar
    16    20    21   ar
    17    14    15   ar
    18     5     6   ar
    19     6     7   ar
    20     7     8   ar
    21     8     9   ar
    22     9    10   ar
    23    10     1   ar
    24     9     4   ar
    25    15    11   ar
    26    21    16   ar
@<TRIPOS>MOLECULE
*****
 23 26 0 0 0
SMALL
GASTEIGER

@<TRIPOS>ATOM
      1 C         141.1018  141.3349  169.1486 C.ar    1  UNL1        0.1402
      2 C         141.1794  142.4247  168.1209 C.ar    1  UNL1        0.0370
      3 C         141.9513  142.2068  166.8534 C.ar    1  UNL1        0.0046
      4 C         142.6457  140.8990  166.6136 C.ar    1  UNL1        0.0180
      5 C         143.4177  140.6811  165.3460 C.ar    1  UNL1        0.0061
      6 C         144.1121  139.3733  165.1062 C.ar    1  UNL1        0.0208
      7 C         144.0345  138.2834  166.1340 C.ar    1  UNL1        0.0988
      8 N         143.2626  138.5014  167.4015 N.ar    1  UNL1       -0.2437
      9 C         142.5682  139.8092  167.6413 C.ar    1  UNL1        0.0843
     10 C         141.7962  140.0272  168.9088 C.ar    1  UNL1        0.0560
     11 C         143.4952  141.7709  164.3183 C.ar    1  UNL1        0.0402
     12 C         144.6237  142.7447  164.1492 C.ar    1  UNL1        0.1220
     13 N         144.2839  143.6540  163.0056 N.ar    1  UNL1       -0.1635
     14 N         142.9454  143.2422  162.4679 N.ar    1  UNL1       -0.2281
     15 C         142.4580  142.0784  163.2792 C.ar    1  UNL1        0.1019
     16 C         142.2215  143.8819  161.3204 C.ar    1  UNL1        0.0828
     17 C         142.5783  143.5150  159.9104 C.ar    1  UNL1        0.0191
     18 C         141.8544  144.1547  158.7630 C.ar    1  UNL1        0.0015
     19 C         140.7736  145.1612  159.0255 C.ar    1  UNL1        0.0001
     20 C         140.4168  145.5279  160.4354 C.ar    1  UNL1        0.0015
     21 C         141.1407  144.8883  161.5829 C.ar    1  UNL1        0.0191
     22 C         139.7429  142.9006  170.7144 C.3     1  UNL1        0.2525
     23 O         140.3298  141.5528  170.4161 O.3     1  UNL1       -0.4714
@<TRIPOS>BOND
     1    22    23    1
     2    23     1    1
     3     1     2   ar
     4     2     3   ar
     5     3     4   ar
     6     4     5   ar
     7     5    11    1
     8    11    12   ar
     9    12    13   ar
    10    13    14   ar
    11    14    16    1
    12    16    17   ar
    13    17    18   ar
    14    18    19   ar
    15    19    20   ar
    16    20    21   ar
    17    14    15   ar
    18     5     6   ar
    19     6     7   ar
    20     7     8   ar
    21     8     9   ar
    22     9    10   ar
    23    10     1   ar
    24     9     4   ar
    25    15    11   ar
    26    21    16   ar
