@<TRIPOS>MOLECULE
*****
 22 23 0 0 0
SMALL
GASTEIGER

@<TRIPOS>ATOM
      1 N         139.5644  140.7351  166.6616 N.am    1  UNL1       -0.2763
      2 C         139.7635  140.5702  168.1392 C.2     1  UNL1        0.2487
      3 O         139.0048  139.5126  168.8847 O.2     1  UNL1       -0.2699
      4 C         140.7213  141.4629  168.8711 C.ar    1  UNL1        0.0496
      5 C         140.3145  142.8595  169.2371 C.ar    1  UNL1        0.0042
      6 C         141.2723  143.7522  169.9690 C.ar    1  UNL1        0.0001
      7 C         142.6369  143.2482  170.3350 C.ar    1  UNL1       -0.0003
      8 C         143.0436  141.8516  169.9691 C.ar    1  UNL1       -0.0041
      9 C         142.0859  140.9589  169.2372 C.ar    1  UNL1       -0.0181
     10 C         142.4926  139.5622  168.8712 C.3     1  UNL1        0.0225
     11 C         142.8010  139.2207  167.4435 C.3     1  UNL1        0.0047
     12 C         142.5910  138.5072  169.9328 C.3     1  UNL1        0.0047
     13 C         140.3231  141.7927  165.9160 C.3     1  UNL1        0.0927
     14 C         141.7040  141.6518  165.3474 C.3     1  UNL1        0.0383
     15 C         142.0684  142.9489  164.6882 C.3     1  UNL1        0.0704
     16 N         140.9128  143.8916  164.8494 N.3     1  UNL1       -0.2960
     17 C         139.8342  143.1770  165.6082 C.3     1  UNL1        0.0887
     18 H         140.5638  144.1714  163.9327 H       1  UNL1        0.1233
     19 C         138.6066  139.8425  165.9296 C.3     1  UNL1        0.0936
     20 C         138.0934  137.3053  166.1526 C.3     1  UNL1        0.0018
     21 C         138.9730  138.4140  165.6553 C.3     1  UNL1        0.0199
     22 C         140.2190  138.0942  164.8838 C.3     1  UNL1        0.0018
@<TRIPOS>BOND
     1    20    21    1
     2    21    22    1
     3    21    19    1
     4    19     1    1
     5     1     2   am
     6     2     3    2
     7     2     4    1
     8     4     5   ar
     9     5     6   ar
    10     6     7   ar
    11     7     8   ar
    12     8     9   ar
    13     9    10    1
    14    10    11    1
    15    10    12    1
    16    13     1    1
    17    13    14    1
    18    14    15    1
    19    15    16    1
    20    16    17    1
    21     9     4   ar
    22    17    13    1
    23    16    18    1
@<TRIPOS>MOLECULE
*****
 22 23 0 0 0
SMALL
GASTEIGER

@<TRIPOS>ATOM
      1 N         141.5575  142.0877  164.3794 N.am    1  UNL1       -0.2763
      2 C         141.6874  140.7914  165.1229 C.2     1  UNL1        0.2487
      3 O         143.0117  140.0894  165.1806 O.2     1  UNL1       -0.2699
      4 C         140.4930  140.1972  165.8087 C.ar    1  UNL1        0.0496
      5 C         139.4693  139.4431  165.0129 C.ar    1  UNL1        0.0042
      6 C         138.2750  138.8489  165.6987 C.ar    1  UNL1        0.0001
      7 C         138.1043  139.0088  167.1804 C.ar    1  UNL1       -0.0003
      8 C         139.1279  139.7629  167.9762 C.ar    1  UNL1       -0.0041
      9 C         140.3223  140.3571  167.2904 C.ar    1  UNL1       -0.0181
     10 C         141.3460  141.1113  168.0862 C.3     1  UNL1        0.0225
     11 C         141.1712  142.5806  168.3323 C.3     1  UNL1        0.0047
     12 C         142.5445  140.3961  168.6359 C.3     1  UNL1        0.0047
     13 C         140.2331  142.7897  164.3218 C.3     1  UNL1        0.0927
     14 C         139.7177  143.7834  165.3203 C.3     1  UNL1        0.0383
     15 C         138.3578  144.2291  164.8711 C.3     1  UNL1        0.0704
     16 N         138.0326  143.5109  163.5949 N.3     1  UNL1       -0.2960
     17 C         139.1917  142.6214  163.2555 C.3     1  UNL1        0.0887
     18 H         137.8839  144.1868  162.8456 H       1  UNL1        0.1233
     19 C         142.7518  142.6819  163.6937 C.3     1  UNL1        0.0936
     20 C         143.4679  145.1723  163.8820 C.3     1  UNL1        0.0018
     21 C         143.5485  143.7568  164.3719 C.3     1  UNL1        0.0199
     22 C         144.4256  143.4162  165.5401 C.3     1  UNL1        0.0018
@<TRIPOS>BOND
     1    20    21    1
     2    21    22    1
     3    21    19    1
     4    19     1    1
     5     1     2   am
     6     2     3    2
     7     2     4    1
     8     4     5   ar
     9     5     6   ar
    10     6     7   ar
    11     7     8   ar
    12     8     9   ar
    13     9    10    1
    14    10    11    1
    15    10    12    1
    16    13     1    1
    17    13    14    1
    18    14    15    1
    19    15    16    1
    20    16    17    1
    21     9     4   ar
    22    17    13    1
    23    16    18    1
@<TRIPOS>MOLECULE
*****
 22 23 0 0 0
SMALL
GASTEIGER

@<TRIPOS>ATOM
      1 N         140.9856  140.4787  165.7880 N.am    1  UNL1       -0.2763
      2 C         141.0883  141.9038  166.2445 C.2     1  UNL1        0.2487
      3 O         140.2954  142.3709  167.4290 O.2     1  UNL1       -0.2699
      4 C         141.9839  142.8619  165.5164 C.ar    1  UNL1        0.0496
      5 C         143.4663  142.8218  165.7420 C.ar    1  UNL1        0.0042
      6 C         144.3618  143.7799  165.0139 C.ar    1  UNL1        0.0001
      7 C         143.7749  144.7780  164.0603 C.ar    1  UNL1       -0.0003
      8 C         142.2926  144.8180  163.8347 C.ar    1  UNL1       -0.0041
      9 C         141.3971  143.8600  164.5628 C.ar    1  UNL1       -0.0181
     10 C         139.9146  143.9000  164.3372 C.3     1  UNL1        0.0225
     11 C         139.3056  143.1156  163.2131 C.3     1  UNL1        0.0047
     12 C         139.0412  144.7244  165.2359 C.3     1  UNL1        0.0047
     13 C         141.7786  140.0116  164.6035 C.3     1  UNL1        0.0927
     14 C         141.4046  140.1984  163.1629 C.3     1  UNL1        0.0383
     15 C         142.4796  139.5780  162.3207 C.3     1  UNL1        0.0704
     16 N         143.5180  139.0076  163.2407 N.3     1  UNL1       -0.2960
     17 C         143.0848  139.2756  164.6515 C.3     1  UNL1        0.0887
     18 H         144.4186  139.4530  163.0647 H       1  UNL1        0.1233
     19 C         140.0901  139.5206  166.5161 C.3     1  UNL1        0.0936
     20 C         138.0982  140.2329  165.0077 C.3     1  UNL1        0.0018
     21 C         138.6378  139.4274  166.1523 C.3     1  UNL1        0.0199
     22 C         137.7253  138.5287  166.9330 C.3     1  UNL1        0.0018
@<TRIPOS>BOND
     1    20    21    1
     2    21    22    1
     3    21    19    1
     4    19     1    1
     5     1     2   am
     6     2     3    2
     7     2     4    1
     8     4     5   ar
     9     5     6   ar
    10     6     7   ar
    11     7     8   ar
    12     8     9   ar
    13     9    10    1
    14    10    11    1
    15    10    12    1
    16    13     1    1
    17    13    14    1
    18    14    15    1
    19    15    16    1
    20    16    17    1
    21     9     4   ar
    22    17    13    1
    23    16    18    1
@<TRIPOS>MOLECULE
*****
 22 23 0 0 0
SMALL
GASTEIGER

@<TRIPOS>ATOM
      1 N         141.7748  140.3458  167.0504 N.am    1  UNL1       -0.2763
      2 C         140.3287  140.6880  167.2543 C.2     1  UNL1        0.2487
      3 O         139.6985  140.5090  168.6036 O.2     1  UNL1       -0.2699
      4 C         139.5126  141.2094  166.1086 C.ar    1  UNL1        0.0496
      5 C         139.6120  142.6527  165.7126 C.ar    1  UNL1        0.0042
      6 C         138.7960  143.1739  164.5670 C.ar    1  UNL1        0.0001
      7 C         137.8806  142.2518  163.8175 C.ar    1  UNL1       -0.0003
      8 C         137.7812  140.8085  164.2135 C.ar    1  UNL1       -0.0041
      9 C         138.5972  140.2873  165.3591 C.ar    1  UNL1       -0.0181
     10 C         138.4978  138.8439  165.7552 C.3     1  UNL1        0.0225
     11 C         137.6268  138.4408  166.9080 C.3     1  UNL1        0.0047
     12 C         139.2694  137.8037  164.9986 C.3     1  UNL1        0.0047
     13 C         142.4049  140.5249  165.7010 C.3     1  UNL1        0.0927
     14 C         143.1513  141.7379  165.2304 C.3     1  UNL1        0.0383
     15 C         143.6069  141.4850  163.8238 C.3     1  UNL1        0.0704
     16 N         143.1421  140.1156  163.4251 N.3     1  UNL1       -0.2960
     17 C         142.3992  139.5223  164.5852 C.3     1  UNL1        0.0887
     18 H         143.9453  139.5314  163.1930 H       1  UNL1        0.1233
     19 C         142.5908  139.8245  168.1960 C.3     1  UNL1        0.0936
     20 C         142.9324  140.1950  170.7448 C.3     1  UNL1        0.0018
     21 C         142.9369  140.7277  169.3425 C.3     1  UNL1        0.0199
     22 C         143.2876  142.1635  169.0868 C.3     1  UNL1        0.0018
@<TRIPOS>BOND
     1    20    21    1
     2    21    22    1
     3    21    19    1
     4    19     1    1
     5     1     2   am
     6     2     3    2
     7     2     4    1
     8     4     5   ar
     9     5     6   ar
    10     6     7   ar
    11     7     8   ar
    12     8     9   ar
    13     9    10    1
    14    10    11    1
    15    10    12    1
    16    13     1    1
    17    13    14    1
    18    14    15    1
    19    15    16    1
    20    16    17    1
    21     9     4   ar
    22    17    13    1
    23    16    18    1
@<TRIPOS>MOLECULE
*****
 22 23 0 0 0
SMALL
GASTEIGER

@<TRIPOS>ATOM
      1 N         142.5476  142.1381  164.9043 N.am    1  UNL1       -0.2763
      2 C         141.2849  141.9039  165.6795 C.2     1  UNL1        0.2487
      3 O         141.2858  140.9634  166.8480 O.2     1  UNL1       -0.2699
      4 C         140.0214  142.6101  165.2861 C.ar    1  UNL1        0.0496
      5 C         139.8565  144.0717  165.5798 C.ar    1  UNL1        0.0042
      6 C         138.5929  144.7779  165.1864 C.ar    1  UNL1        0.0001
      7 C         137.4943  144.0223  164.4992 C.ar    1  UNL1       -0.0003
      8 C         137.6592  142.5607  164.2054 C.ar    1  UNL1       -0.0041
      9 C         138.9227  141.8546  164.5989 C.ar    1  UNL1       -0.0181
     10 C         139.0877  140.3928  164.3051 C.3     1  UNL1        0.0225
     11 C         139.8140  139.9537  163.0683 C.3     1  UNL1        0.0047
     12 C         138.5264  139.3703  165.2482 C.3     1  UNL1        0.0047
     13 C         142.5466  143.0786  163.7357 C.3     1  UNL1        0.0927
     14 C         142.0614  142.7646  162.3516 C.3     1  UNL1        0.0383
     15 C         142.2457  143.9901  161.5066 C.3     1  UNL1        0.0704
     16 N         142.8448  145.0617  162.3685 N.3     1  UNL1       -0.2960
     17 C         143.0307  144.4984  163.7462 C.3     1  UNL1        0.0887
     18 H         142.2192  145.8665  162.4052 H       1  UNL1        0.1233
     19 C         143.8111  141.4320  165.2977 C.3     1  UNL1        0.0936
     20 C         144.4173  139.4419  163.7414 C.3     1  UNL1        0.0018
     21 C         144.6919  140.8281  164.2444 C.3     1  UNL1        0.0199
     22 C         145.8473  141.6105  163.6940 C.3     1  UNL1        0.0018
@<TRIPOS>BOND
     1    20    21    1
     2    21    22    1
     3    21    19    1
     4    19     1    1
     5     1     2   am
     6     2     3    2
     7     2     4    1
     8     4     5   ar
     9     5     6   ar
    10     6     7   ar
    11     7     8   ar
    12     8     9   ar
    13     9    10    1
    14    10    11    1
    15    10    12    1
    16    13     1    1
    17    13    14    1
    18    14    15    1
    19    15    16    1
    20    16    17    1
    21     9     4   ar
    22    17    13    1
    23    16    18    1
@<TRIPOS>MOLECULE
*****
 22 23 0 0 0
SMALL
GASTEIGER

@<TRIPOS>ATOM
      1 N         141.0283  140.1423  167.0098 N.am    1  UNL1       -0.2763
      2 C         142.0653  139.2081  166.4604 C.2     1  UNL1        0.2487
      3 O         143.2142  138.7730  167.3211 O.2     1  UNL1       -0.2699
      4 C         141.9534  138.7090  165.0503 C.ar    1  UNL1        0.0496
      5 C         141.0149  137.5851  164.7247 C.ar    1  UNL1        0.0042
      6 C         140.9031  137.0861  163.3146 C.ar    1  UNL1        0.0001
      7 C         141.7298  137.7109  162.2301 C.ar    1  UNL1       -0.0003
      8 C         142.6683  138.8347  162.5556 C.ar    1  UNL1       -0.0041
      9 C         142.7801  139.3338  163.9657 C.ar    1  UNL1       -0.0181
     10 C         143.7187  140.4577  164.2914 C.3     1  UNL1        0.0225
     11 C         145.1884  140.1913  164.4295 C.3     1  UNL1        0.0047
     12 C         143.1876  141.8479  164.4788 C.3     1  UNL1        0.0047
     13 C         139.8795  140.5775  166.1490 C.3     1  UNL1        0.0927
     14 C         139.8218  141.8269  165.3211 C.3     1  UNL1        0.0383
     15 C         138.4933  141.8611  164.6255 C.3     1  UNL1        0.0704
     16 N         137.7298  140.6328  165.0236 N.3     1  UNL1       -0.2960
     17 C         138.5865  139.8395  165.9652 C.3     1  UNL1        0.0887
     18 H         137.5160  140.0751  164.1968 H       1  UNL1        0.1233
     19 C         141.1402  140.6414  168.4199 C.3     1  UNL1        0.0936
     20 C         140.6947  143.0999  169.1324 C.3     1  UNL1        0.0018
     21 C         141.6452  142.0284  168.6867 C.3     1  UNL1        0.0199
     22 C         143.1007  142.3440  168.5078 C.3     1  UNL1        0.0018
@<TRIPOS>BOND
     1    20    21    1
     2    21    22    1
     3    21    19    1
     4    19     1    1
     5     1     2   am
     6     2     3    2
     7     2     4    1
     8     4     5   ar
     9     5     6   ar
    10     6     7   ar
    11     7     8   ar
    12     8     9   ar
    13     9    10    1
    14    10    11    1
    15    10    12    1
    16    13     1    1
    17    13    14    1
    18    14    15    1
    19    15    16    1
    20    16    17    1
    21     9     4   ar
    22    17    13    1
    23    16    18    1
@<TRIPOS>MOLECULE
*****
 22 23 0 0 0
SMALL
GASTEIGER

@<TRIPOS>ATOM
      1 N         142.0242  141.6693  167.2870 N.am    1  UNL1       -0.2763
      2 C         141.7253  140.2210  167.5382 C.2     1  UNL1        0.2487
      3 O         142.1592  139.5773  168.8217 O.2     1  UNL1       -0.2699
      4 C         140.9925  139.4164  166.5059 C.ar    1  UNL1        0.0496
      5 C         139.4939  139.4509  166.4530 C.ar    1  UNL1        0.0042
      6 C         138.7612  138.6463  165.4207 C.ar    1  UNL1        0.0001
      7 C         139.5271  137.8072  164.4412 C.ar    1  UNL1       -0.0003
      8 C         141.0257  137.7727  164.4941 C.ar    1  UNL1       -0.0041
      9 C         141.7584  138.5773  165.5265 C.ar    1  UNL1       -0.0181
     10 C         143.2571  138.5428  165.5794 C.3     1  UNL1        0.0225
     11 C         143.9518  137.7805  166.6686 C.3     1  UNL1        0.0047
     12 C         144.0612  139.2706  164.5432 C.3     1  UNL1        0.0047
     13 C         141.5902  142.3130  166.0035 C.3     1  UNL1        0.0927
     14 C         142.3870  142.3734  164.7340 C.3     1  UNL1        0.0383
     15 C         141.5725  143.1070  163.7100 C.3     1  UNL1        0.0704
     16 N         140.2724  143.5000  164.3467 N.3     1  UNL1       -0.2960
     17 C         140.2833  143.0093  165.7641 C.3     1  UNL1        0.0887
     18 H         139.4961  143.0752  163.8393 H       1  UNL1        0.1233
     19 C         142.7569  142.4739  168.3193 C.3     1  UNL1        0.0936
     20 C         142.7912  143.2572  170.7963 C.3     1  UNL1        0.0018
     21 C         142.0323  142.9740  169.5337 C.3     1  UNL1        0.0199
     22 C         140.5488  143.1908  169.4857 C.3     1  UNL1        0.0018
@<TRIPOS>BOND
     1    20    21    1
     2    21    22    1
     3    21    19    1
     4    19     1    1
     5     1     2   am
     6     2     3    2
     7     2     4    1
     8     4     5   ar
     9     5     6   ar
    10     6     7   ar
    11     7     8   ar
    12     8     9   ar
    13     9    10    1
    14    10    11    1
    15    10    12    1
    16    13     1    1
    17    13    14    1
    18    14    15    1
    19    15    16    1
    20    16    17    1
    21     9     4   ar
    22    17    13    1
    23    16    18    1
@<TRIPOS>MOLECULE
*****
 22 23 0 0 0
SMALL
GASTEIGER

@<TRIPOS>ATOM
      1 N         141.4180  141.8502  164.2658 N.am    1  UNL1       -0.2763
      2 C         141.5762  140.5392  164.9775 C.2     1  UNL1        0.2487
      3 O         142.9167  139.8677  165.0232 O.2     1  UNL1       -0.2699
      4 C         140.3939  139.8999  165.6434 C.ar    1  UNL1        0.0496
      5 C         139.9455  140.3757  166.9934 C.ar    1  UNL1        0.0042
      6 C         138.7632  139.7363  167.6593 C.ar    1  UNL1        0.0001
      7 C         138.0294  138.6212  166.9752 C.ar    1  UNL1       -0.0003
      8 C         138.4778  138.1455  165.6252 C.ar    1  UNL1       -0.0041
      9 C         139.6600  138.7848  164.9593 C.ar    1  UNL1       -0.0181
     10 C         140.1085  138.3091  163.6092 C.3     1  UNL1        0.0225
     11 C         141.1159  137.2030  163.5003 C.3     1  UNL1        0.0047
     12 C         139.5496  138.9394  162.3681 C.3     1  UNL1        0.0047
     13 C         140.0775  142.5218  164.2201 C.3     1  UNL1        0.0927
     14 C         139.5758  143.5553  165.1846 C.3     1  UNL1        0.0383
     15 C         138.1916  143.9500  164.7625 C.3     1  UNL1        0.0704
     16 N         137.8378  143.1604  163.5371 N.3     1  UNL1       -0.2960
     17 C         139.0033  142.2777  163.2020 C.3     1  UNL1        0.0887
     18 H         137.6483  143.7934  162.7601 H       1  UNL1        0.1233
     19 C         142.6003  142.4895  163.5999 C.3     1  UNL1        0.0936
     20 C         143.0585  145.0346  163.8509 C.3     1  UNL1        0.0018
     21 C         143.3205  143.6195  164.2740 C.3     1  UNL1        0.0199
     22 C         144.3027  143.3344  165.3713 C.3     1  UNL1        0.0018
@<TRIPOS>BOND
     1    20    21    1
     2    21    22    1
     3    21    19    1
     4    19     1    1
     5     1     2   am
     6     2     3    2
     7     2     4    1
     8     4     5   ar
     9     5     6   ar
    10     6     7   ar
    11     7     8   ar
    12     8     9   ar
    13     9    10    1
    14    10    11    1
    15    10    12    1
    16    13     1    1
    17    13    14    1
    18    14    15    1
    19    15    16    1
    20    16    17    1
    21     9     4   ar
    22    17    13    1
    23    16    18    1
@<TRIPOS>MOLECULE
*****
 22 23 0 0 0
SMALL
GASTEIGER

@<TRIPOS>ATOM
      1 N         138.8417  140.1593  162.3124 N.am    1  UNL1       -0.2763
      2 C         138.1486  140.8380  163.4565 C.2     1  UNL1        0.2487
      3 O         137.0674  141.8426  163.1889 O.2     1  UNL1       -0.2699
      4 C         138.5368  140.5120  164.8683 C.ar    1  UNL1        0.0496
      5 C         138.0101  139.2696  165.5232 C.ar    1  UNL1        0.0042
      6 C         138.3982  138.9438  166.9349 C.ar    1  UNL1        0.0001
      7 C         139.3132  139.8603  167.6918 C.ar    1  UNL1       -0.0003
      8 C         139.8400  141.1027  167.0369 C.ar    1  UNL1       -0.0041
      9 C         139.4518  141.4286  165.6252 C.ar    1  UNL1       -0.0181
     10 C         139.9785  142.6710  164.9702 C.3     1  UNL1        0.0225
     11 C         141.3220  142.6553  164.3033 C.3     1  UNL1        0.0047
     12 C         139.1618  143.9291  164.9822 C.3     1  UNL1        0.0047
     13 C         139.9230  139.1547  162.5801 C.3     1  UNL1        0.0927
     14 C         141.3718  139.4612  162.8191 C.3     1  UNL1        0.0383
     15 C         142.0895  138.1631  163.0425 C.3     1  UNL1        0.0704
     16 N         141.0843  137.0543  162.9416 N.3     1  UNL1       -0.2960
     17 C         139.7453  137.6671  162.6558 C.3     1  UNL1        0.0887
     18 H         141.0483  136.5385  163.8209 H       1  UNL1        0.1233
     19 C         138.4536  140.4852  160.9006 C.3     1  UNL1        0.0936
     20 C         138.4105  142.1903  158.9408 C.3     1  UNL1        0.0018
     21 C         138.9934  141.7190  160.2402 C.3     1  UNL1        0.0199
     22 C         140.1160  142.4816  160.8790 C.3     1  UNL1        0.0018
@<TRIPOS>BOND
     1    20    21    1
     2    21    22    1
     3    21    19    1
     4    19     1    1
     5     1     2   am
     6     2     3    2
     7     2     4    1
     8     4     5   ar
     9     5     6   ar
    10     6     7   ar
    11     7     8   ar
    12     8     9   ar
    13     9    10    1
    14    10    11    1
    15    10    12    1
    16    13     1    1
    17    13    14    1
    18    14    15    1
    19    15    16    1
    20    16    17    1
    21     9     4   ar
    22    17    13    1
    23    16    18    1
