@<TRIPOS>MOLECULE
*****
 27 29 0 0 0
SMALL
GASTEIGER

@<TRIPOS>ATOM
      1 N         138.5329  143.2612  162.4932 N.3     1  UNL1       -0.2700
      2 C         139.2947  142.6248  161.3685 C.3     1  UNL1        0.0897
      3 C         139.0650  141.1819  161.0291 C.3     1  UNL1        0.0897
      4 N         138.0735  140.3753  161.8144 N.3     1  UNL1       -0.2700
      5 C         137.3118  141.0117  162.9390 C.3     1  UNL1        0.0897
      6 C         137.5415  142.4546  163.2784 C.3     1  UNL1        0.0897
      7 C         138.7626  144.7041  162.8327 C.3     1  UNL1        0.0769
      8 C         139.5702  145.0706  164.0424 C.3     1  UNL1        0.0437
      9 C         143.6964  143.3623  164.5954 C.ar    1  UNL1        0.1387
     10 C         143.5119  144.6509  163.8503 C.ar    1  UNL1        0.0366
     11 C         142.1365  145.2204  163.6660 C.ar    1  UNL1       -0.0011
     12 C         140.9456  144.5012  164.2267 C.ar    1  UNL1       -0.0206
     13 C         141.1301  143.2125  164.9718 C.ar    1  UNL1       -0.0011
     14 C         142.5055  142.6430  165.1562 C.ar    1  UNL1        0.0366
     15 O         145.0718  142.7928  164.7798 O.3     1  UNL1       -0.4724
     16 C         145.6611  141.9001  163.7282 C.3     1  UNL1        0.2434
     17 F         145.4338  139.4100  164.4340 F       1  UNL1       -0.2302
     18 C         145.0899  140.5321  163.4997 C.3     1  UNL1        0.2403
     19 C         137.8438  138.9324  161.4749 C.3     1  UNL1        0.0769
     20 C         138.3385  137.8572  162.3965 C.3     1  UNL1        0.0445
     21 C         139.6577  138.0146  163.0928 C.ar    1  UNL1       -0.0102
     22 C         140.9355  137.8471  162.3253 C.ar    1  UNL1       -0.0034
     23 C         142.2548  138.0045  163.0215 C.ar    1  UNL1       -0.0003
     24 C         142.2963  138.3294  164.4853 C.ar    1  UNL1        0.0008
     25 C         141.0184  138.4970  165.2529 C.ar    1  UNL1        0.0111
     26 C         139.6992  138.3396  164.5566 C.ar    1  UNL1        0.0537
     27 CL        138.4214  138.5072  165.3241 Cl      1  UNL1       -0.0826
@<TRIPOS>BOND
     1    17    18    1
     2    18    16    1
     3    16    15    1
     4    15     9    1
     5     9    10   ar
     6    10    11   ar
     7    11    12   ar
     8    12     8    1
     9     8     7    1
    10     7     1    1
    11     1     2    1
    12     2     3    1
    13     3     4    1
    14     4    19    1
    15    19    20    1
    16    20    21    1
    17    21    22   ar
    18    22    23   ar
    19    23    24   ar
    20    24    25   ar
    21    25    26   ar
    22    26    27    1
    23     4     5    1
    24     5     6    1
    25    12    13   ar
    26    13    14   ar
    27    14     9   ar
    28     6     1    1
    29    26    21   ar
@<TRIPOS>MOLECULE
*****
 27 29 0 0 0
SMALL
GASTEIGER

@<TRIPOS>ATOM
      1 N         144.4595  140.5492  163.5680 N.3     1  UNL1       -0.2700
      2 C         143.9166  140.4242  162.1752 C.3     1  UNL1        0.0897
      3 C         142.8894  139.3770  161.8619 C.3     1  UNL1        0.0897
      4 N         142.4051  138.4547  162.9413 N.3     1  UNL1       -0.2700
      5 C         142.9481  138.5797  164.3339 C.3     1  UNL1        0.0897
      6 C         143.9753  139.6269  164.6473 C.3     1  UNL1        0.0897
      7 C         145.4867  141.5964  163.8813 C.3     1  UNL1        0.0769
      8 C         145.0995  142.8166  164.6629 C.3     1  UNL1        0.0437
      9 C         141.0064  144.6139  164.1470 C.ar    1  UNL1        0.1387
     10 C         141.1910  143.4063  165.0173 C.ar    1  UNL1        0.0366
     11 C         142.5553  142.8072  165.1893 C.ar    1  UNL1       -0.0011
     12 C         143.7351  143.4157  164.4909 C.ar    1  UNL1       -0.0206
     13 C         143.5505  144.6234  163.6206 C.ar    1  UNL1       -0.0011
     14 C         142.1862  145.2225  163.4487 C.ar    1  UNL1        0.0366
     15 O         139.6420  145.2130  163.9750 O.3     1  UNL1       -0.4724
     16 C         138.7285  144.7021  162.9006 C.3     1  UNL1        0.2434
     17 F         137.4105  143.3050  164.6503 F       1  UNL1       -0.2302
     18 C         137.7083  143.6502  163.2212 C.3     1  UNL1        0.2403
     19 C         141.3779  137.4075  162.6279 C.3     1  UNL1        0.0769
     20 C         139.9189  137.7542  162.6621 C.3     1  UNL1        0.0445
     21 C         139.3073  138.3015  163.9176 C.ar    1  UNL1       -0.0102
     22 C         138.8290  137.3663  164.9884 C.ar    1  UNL1       -0.0034
     23 C         138.2174  137.9136  166.2439 C.ar    1  UNL1       -0.0003
     24 C         138.0841  139.3962  166.4287 C.ar    1  UNL1        0.0008
     25 C         138.5624  140.3315  165.3580 C.ar    1  UNL1        0.0111
     26 C         139.1740  139.7842  164.1024 C.ar    1  UNL1        0.0537
     27 CL        139.6523  140.7194  163.0317 Cl      1  UNL1       -0.0826
@<TRIPOS>BOND
     1    17    18    1
     2    18    16    1
     3    16    15    1
     4    15     9    1
     5     9    10   ar
     6    10    11   ar
     7    11    12   ar
     8    12     8    1
     9     8     7    1
    10     7     1    1
    11     1     2    1
    12     2     3    1
    13     3     4    1
    14     4    19    1
    15    19    20    1
    16    20    21    1
    17    21    22   ar
    18    22    23   ar
    19    23    24   ar
    20    24    25   ar
    21    25    26   ar
    22    26    27    1
    23     4     5    1
    24     5     6    1
    25    12    13   ar
    26    13    14   ar
    27    14     9   ar
    28     6     1    1
    29    26    21   ar
@<TRIPOS>MOLECULE
*****
 27 29 0 0 0
SMALL
GASTEIGER

@<TRIPOS>ATOM
      1 N         137.8920  140.6437  161.4821 N.3     1  UNL1       -0.2700
      2 C         137.3077  141.1084  162.7832 C.3     1  UNL1        0.0897
      3 C         137.6093  142.4873  163.2908 C.3     1  UNL1        0.0897
      4 N         138.4953  143.4015  162.4974 N.3     1  UNL1       -0.2700
      5 C         139.0795  142.9367  161.1964 C.3     1  UNL1        0.0897
      6 C         138.7779  141.5579  160.6887 C.3     1  UNL1        0.0897
      7 C         137.5903  139.2648  160.9745 C.3     1  UNL1        0.0769
      8 C         137.8420  138.0721  161.8485 C.3     1  UNL1        0.0437
      9 C         141.5259  137.9101  164.4278 C.ar    1  UNL1        0.1387
     10 C         140.1730  138.0488  165.0603 C.ar    1  UNL1        0.0366
     11 C         138.9450  138.1028  164.2006 C.ar    1  UNL1       -0.0011
     12 C         139.0700  138.0181  162.7082 C.ar    1  UNL1       -0.0206
     13 C         140.4230  137.8793  162.0757 C.ar    1  UNL1       -0.0011
     14 C         141.6509  137.8253  162.9354 C.ar    1  UNL1        0.0366
     15 O         142.7539  137.8560  165.2875 O.3     1  UNL1       -0.4724
     16 C         143.5676  139.0960  165.5118 C.3     1  UNL1        0.2434
     17 F         144.6091  139.1152  163.1317 F       1  UNL1       -0.2302
     18 C         144.7123  139.4176  164.5973 C.3     1  UNL1        0.2403
     19 C         138.7969  144.7803  163.0050 C.3     1  UNL1        0.0769
     20 C         139.5667  144.9584  164.2802 C.3     1  UNL1        0.0445
     21 C         141.0012  144.5269  164.3567 C.ar    1  UNL1       -0.0102
     22 C         142.0702  145.3594  163.7131 C.ar    1  UNL1       -0.0034
     23 C         143.5047  144.9279  163.7896 C.ar    1  UNL1       -0.0003
     24 C         143.8703  143.6639  164.5098 C.ar    1  UNL1        0.0008
     25 C         142.8014  142.8314  165.1535 C.ar    1  UNL1        0.0111
     26 C         141.3668  143.2629  165.0769 C.ar    1  UNL1        0.0537
     27 CL        140.2979  142.4304  165.7206 Cl      1  UNL1       -0.0826
@<TRIPOS>BOND
     1    17    18    1
     2    18    16    1
     3    16    15    1
     4    15     9    1
     5     9    10   ar
     6    10    11   ar
     7    11    12   ar
     8    12     8    1
     9     8     7    1
    10     7     1    1
    11     1     2    1
    12     2     3    1
    13     3     4    1
    14     4    19    1
    15    19    20    1
    16    20    21    1
    17    21    22   ar
    18    22    23   ar
    19    23    24   ar
    20    24    25   ar
    21    25    26   ar
    22    26    27    1
    23     4     5    1
    24     5     6    1
    25    12    13   ar
    26    13    14   ar
    27    14     9   ar
    28     6     1    1
    29    26    21   ar
@<TRIPOS>MOLECULE
*****
 27 29 0 0 0
SMALL
GASTEIGER

@<TRIPOS>ATOM
      1 N         138.3419  143.1841  162.7005 N.3     1  UNL1       -0.2700
      2 C         138.6945  142.7547  161.3071 C.3     1  UNL1        0.0897
      3 C         138.4850  141.3305  160.8856 C.3     1  UNL1        0.0897
      4 N         137.9229  140.3356  161.8574 N.3     1  UNL1       -0.2700
      5 C         137.5703  140.7650  163.2506 C.3     1  UNL1        0.0897
      6 C         137.7798  142.1893  163.6722 C.3     1  UNL1        0.0897
      7 C         138.5514  144.6083  163.1220 C.3     1  UNL1        0.0769
      8 C         139.3749  144.9175  164.3369 C.3     1  UNL1        0.0437
      9 C         143.6200  143.4496  164.6108 C.ar    1  UNL1        0.1387
     10 C         142.5127  142.6662  165.2513 C.ar    1  UNL1        0.0366
     11 C         141.0977  143.1555  165.1600 C.ar    1  UNL1       -0.0011
     12 C         140.7900  144.4282  164.4282 C.ar    1  UNL1       -0.0206
     13 C         141.8972  145.2115  163.7877 C.ar    1  UNL1       -0.0011
     14 C         143.3122  144.7222  163.8790 C.ar    1  UNL1        0.0366
     15 O         145.0350  142.9603  164.7021 O.3     1  UNL1       -0.4724
     16 C         145.4768  141.7855  163.8807 C.3     1  UNL1        0.2434
     17 F         143.5576  141.3395  162.1872 F       1  UNL1       -0.2302
     18 C         145.0010  141.6382  162.4658 C.3     1  UNL1        0.2403
     19 C         137.7134  138.9114  161.4358 C.3     1  UNL1        0.0769
     20 C         138.3729  137.7994  162.1965 C.3     1  UNL1        0.0445
     21 C         139.8004  137.9353  162.6367 C.ar    1  UNL1       -0.0102
     22 C         140.8888  138.0871  161.6158 C.ar    1  UNL1       -0.0034
     23 C         142.3163  138.2231  162.0560 C.ar    1  UNL1       -0.0003
     24 C         142.6554  138.2073  163.5170 C.ar    1  UNL1        0.0008
     25 C         141.5669  138.0555  164.5380 C.ar    1  UNL1        0.0111
     26 C         140.1394  137.9195  164.0978 C.ar    1  UNL1        0.0537
     27 CL        139.0510  137.7677  165.1187 Cl      1  UNL1       -0.0826
@<TRIPOS>BOND
     1    17    18    1
     2    18    16    1
     3    16    15    1
     4    15     9    1
     5     9    10   ar
     6    10    11   ar
     7    11    12   ar
     8    12     8    1
     9     8     7    1
    10     7     1    1
    11     1     2    1
    12     2     3    1
    13     3     4    1
    14     4    19    1
    15    19    20    1
    16    20    21    1
    17    21    22   ar
    18    22    23   ar
    19    23    24   ar
    20    24    25   ar
    21    25    26   ar
    22    26    27    1
    23     4     5    1
    24     5     6    1
    25    12    13   ar
    26    13    14   ar
    27    14     9   ar
    28     6     1    1
    29    26    21   ar
@<TRIPOS>MOLECULE
*****
 27 29 0 0 0
SMALL
GASTEIGER

@<TRIPOS>ATOM
      1 N         140.7151  138.2120  163.8149 N.3     1  UNL1       -0.2700
      2 C         141.7011  138.0529  162.6958 C.3     1  UNL1        0.0897
      3 C         143.1043  138.5588  162.8549 C.3     1  UNL1        0.0897
      4 N         143.5214  139.2237  164.1333 N.3     1  UNL1       -0.2700
      5 C         142.5353  139.3827  165.2523 C.3     1  UNL1        0.0897
      6 C         141.1322  138.8769  165.0932 C.3     1  UNL1        0.0897
      7 C         139.3119  137.7062  163.6558 C.3     1  UNL1        0.0769
      8 C         138.3938  138.3436  162.6554 C.3     1  UNL1        0.0437
      9 C         137.9049  142.8163  162.5802 C.ar    1  UNL1        0.1387
     10 C         138.2206  142.0750  161.3150 C.ar    1  UNL1        0.0366
     11 C         138.3836  140.5841  161.3401 C.ar    1  UNL1       -0.0011
     12 C         138.2309  139.8345  162.6303 C.ar    1  UNL1       -0.0206
     13 C         137.9151  140.5759  163.8955 C.ar    1  UNL1       -0.0011
     14 C         137.7522  142.0668  163.8704 C.ar    1  UNL1        0.0366
     15 O         137.7419  144.3073  162.5551 O.3     1  UNL1       -0.4724
     16 C         138.9510  145.1945  162.5835 C.3     1  UNL1        0.2434
     17 F         140.8730  143.6815  163.4594 F       1  UNL1       -0.2302
     18 C         140.0512  144.9317  163.5687 C.3     1  UNL1        0.2403
     19 C         144.9245  139.7295  164.2924 C.3     1  UNL1        0.0769
     20 C         145.4200  140.8510  163.4283 C.3     1  UNL1        0.0445
     21 C         144.8947  142.2415  163.6299 C.ar    1  UNL1       -0.0102
     22 C         144.6805  142.7684  165.0179 C.ar    1  UNL1       -0.0034
     23 C         144.1553  144.1589  165.2195 C.ar    1  UNL1       -0.0003
     24 C         143.8442  145.0225  164.0332 C.ar    1  UNL1        0.0008
     25 C         144.0584  144.4956  162.6452 C.ar    1  UNL1        0.0111
     26 C         144.5837  143.1051  162.4435 C.ar    1  UNL1        0.0537
     27 CL        144.7979  142.5783  161.0556 Cl      1  UNL1       -0.0826
@<TRIPOS>BOND
     1    17    18    1
     2    18    16    1
     3    16    15    1
     4    15     9    1
     5     9    10   ar
     6    10    11   ar
     7    11    12   ar
     8    12     8    1
     9     8     7    1
    10     7     1    1
    11     1     2    1
    12     2     3    1
    13     3     4    1
    14     4    19    1
    15    19    20    1
    16    20    21    1
    17    21    22   ar
    18    22    23   ar
    19    23    24   ar
    20    24    25   ar
    21    25    26   ar
    22    26    27    1
    23     4     5    1
    24     5     6    1
    25    12    13   ar
    26    13    14   ar
    27    14     9   ar
    28     6     1    1
    29    26    21   ar
@<TRIPOS>MOLECULE
*****
 27 29 0 0 0
SMALL
GASTEIGER

@<TRIPOS>ATOM
      1 N         142.1983  137.8620  164.1243 N.3     1  UNL1       -0.2700
      2 C         142.8858  138.3781  165.3535 C.3     1  UNL1        0.0897
      3 C         143.9989  139.3756  165.2273 C.3     1  UNL1        0.0897
      4 N         144.4245  139.8570  163.8718 N.3     1  UNL1       -0.2700
      5 C         143.7370  139.3408  162.6426 C.3     1  UNL1        0.0897
      6 C         142.6239  138.3433  162.7689 C.3     1  UNL1        0.0897
      7 C         141.0852  136.8644  164.2505 C.3     1  UNL1        0.0769
      8 C         139.7683  137.2802  164.8360 C.3     1  UNL1        0.0437
      9 C         137.7145  140.9954  163.3428 C.ar    1  UNL1        0.1387
     10 C         137.9359  139.8369  162.4161 C.ar    1  UNL1        0.0366
     11 C         138.6205  138.5985  162.9138 C.ar    1  UNL1       -0.0011
     12 C         139.0837  138.5186  164.3383 C.ar    1  UNL1       -0.0206
     13 C         138.8623  139.6771  165.2649 C.ar    1  UNL1       -0.0011
     14 C         138.1777  140.9155  164.7672 C.ar    1  UNL1        0.0366
     15 O         137.0300  142.2338  162.8451 O.3     1  UNL1       -0.4724
     16 C         137.8230  143.4841  162.6049 C.3     1  UNL1        0.2434
     17 F         137.3264  144.2939  165.0232 F       1  UNL1       -0.2302
     18 C         138.0793  144.4380  163.7338 C.3     1  UNL1        0.2403
     19 C         145.5376  140.8545  163.7455 C.3     1  UNL1        0.0769
     20 C         145.3385  142.2643  164.2180 C.3     1  UNL1        0.0445
     21 C         144.1078  143.0226  163.8177 C.ar    1  UNL1       -0.0102
     22 C         143.9964  143.5962  162.4363 C.ar    1  UNL1       -0.0034
     23 C         142.7657  144.3545  162.0360 C.ar    1  UNL1       -0.0003
     24 C         141.6463  144.5393  163.0172 C.ar    1  UNL1        0.0008
     25 C         141.7577  143.9657  164.3988 C.ar    1  UNL1        0.0111
     26 C         142.9884  143.2074  164.7991 C.ar    1  UNL1        0.0537
     27 CL        143.0998  142.6338  166.1806 Cl      1  UNL1       -0.0826
@<TRIPOS>BOND
     1    17    18    1
     2    18    16    1
     3    16    15    1
     4    15     9    1
     5     9    10   ar
     6    10    11   ar
     7    11    12   ar
     8    12     8    1
     9     8     7    1
    10     7     1    1
    11     1     2    1
    12     2     3    1
    13     3     4    1
    14     4    19    1
    15    19    20    1
    16    20    21    1
    17    21    22   ar
    18    22    23   ar
    19    23    24   ar
    20    24    25   ar
    21    25    26   ar
    22    26    27    1
    23     4     5    1
    24     5     6    1
    25    12    13   ar
    26    13    14   ar
    27    14     9   ar
    28     6     1    1
    29    26    21   ar
@<TRIPOS>MOLECULE
*****
 27 29 0 0 0
SMALL
GASTEIGER

@<TRIPOS>ATOM
      1 N         138.5580  139.9839  162.2795 N.3     1  UNL1       -0.2700
      2 C         137.5085  140.9260  162.7907 C.3     1  UNL1        0.0897
      3 C         137.7526  142.4058  162.7654 C.3     1  UNL1        0.0897
      4 N         139.0461  142.9435  162.2289 N.3     1  UNL1       -0.2700
      5 C         140.0955  142.0014  161.7177 C.3     1  UNL1        0.0897
      6 C         139.8514  140.5216  161.7431 C.3     1  UNL1        0.0897
      7 C         138.3139  138.5041  162.3049 C.3     1  UNL1        0.0769
      8 C         138.7438  137.6933  163.4913 C.3     1  UNL1        0.0437
      9 C         140.5544  139.7303  167.0721 C.ar    1  UNL1        0.1387
     10 C         139.0664  139.5687  166.9739 C.ar    1  UNL1        0.0366
     11 C         138.4629  138.8897  165.7804 C.ar    1  UNL1       -0.0011
     12 C         139.3473  138.3723  164.6849 C.ar    1  UNL1       -0.0206
     13 C         140.8353  138.5339  164.7831 C.ar    1  UNL1       -0.0011
     14 C         141.4389  139.2130  165.9767 C.ar    1  UNL1        0.0366
     15 O         141.1580  140.4094  168.2657 O.3     1  UNL1       -0.4724
     16 C         141.0452  139.7807  169.6229 C.3     1  UNL1        0.2434
     17 F         138.7526  140.9347  170.0265 F       1  UNL1       -0.2302
     18 C         139.9507  140.2044  170.5571 C.3     1  UNL1        0.2403
     19 C         139.2902  144.4232  162.2035 C.3     1  UNL1        0.0769
     20 C         139.9572  145.0934  163.3681 C.3     1  UNL1        0.0445
     21 C         141.2499  144.5537  163.9044 C.ar    1  UNL1       -0.0102
     22 C         142.5551  145.0755  163.3809 C.ar    1  UNL1       -0.0034
     23 C         143.8478  144.5358  163.9172 C.ar    1  UNL1       -0.0003
     24 C         143.8353  143.4743  164.9770 C.ar    1  UNL1        0.0008
     25 C         142.5300  142.9525  165.5005 C.ar    1  UNL1        0.0111
     26 C         141.2373  143.4922  164.9642 C.ar    1  UNL1        0.0537
     27 CL        139.9321  142.9704  165.4876 Cl      1  UNL1       -0.0826
@<TRIPOS>BOND
     1    17    18    1
     2    18    16    1
     3    16    15    1
     4    15     9    1
     5     9    10   ar
     6    10    11   ar
     7    11    12   ar
     8    12     8    1
     9     8     7    1
    10     7     1    1
    11     1     2    1
    12     2     3    1
    13     3     4    1
    14     4    19    1
    15    19    20    1
    16    20    21    1
    17    21    22   ar
    18    22    23   ar
    19    23    24   ar
    20    24    25   ar
    21    25    26   ar
    22    26    27    1
    23     4     5    1
    24     5     6    1
    25    12    13   ar
    26    13    14   ar
    27    14     9   ar
    28     6     1    1
    29    26    21   ar
@<TRIPOS>MOLECULE
*****
 27 29 0 0 0
SMALL
GASTEIGER

@<TRIPOS>ATOM
      1 N         144.3256  139.9464  164.0852 N.3     1  UNL1       -0.2700
      2 C         143.8926  139.2111  162.8515 C.3     1  UNL1        0.0897
      3 C         142.7508  138.2406  162.9188 C.3     1  UNL1        0.0897
      4 N         142.0420  138.0055  164.2198 N.3     1  UNL1       -0.2700
      5 C         142.4751  138.7408  165.4534 C.3     1  UNL1        0.0897
      6 C         143.6169  139.7112  165.3861 C.3     1  UNL1        0.0897
      7 C         145.4674  140.9168  164.0179 C.3     1  UNL1        0.0769
      8 C         145.4562  142.0188  163.0003 C.3     1  UNL1        0.0437
      9 C         141.9643  144.8493  162.7874 C.ar    1  UNL1        0.1387
     10 C         142.9735  144.9847  163.8889 C.ar    1  UNL1        0.0366
     11 C         144.1374  144.0412  163.9598 C.ar    1  UNL1       -0.0011
     12 C         144.2922  142.9623  162.9293 C.ar    1  UNL1       -0.0206
     13 C         143.2830  142.8268  161.8279 C.ar    1  UNL1       -0.0011
     14 C         142.1191  143.7703  161.7570 C.ar    1  UNL1        0.0366
     15 O         140.8004  145.7928  162.7165 O.3     1  UNL1       -0.4724
     16 C         139.4075  145.2558  162.5698 C.3     1  UNL1        0.2434
     17 F         139.2792  144.8569  165.1339 F       1  UNL1       -0.2302
     18 C         138.6859  144.7061  163.7644 C.3     1  UNL1        0.2403
     19 C         140.9002  137.0351  164.2871 C.3     1  UNL1        0.0769
     20 C         139.5715  137.4765  164.8254 C.3     1  UNL1        0.0445
     21 C         138.9060  138.7003  164.2691 C.ar    1  UNL1       -0.0102
     22 C         138.4931  138.7397  162.8276 C.ar    1  UNL1       -0.0034
     23 C         137.8276  139.9635  162.2713 C.ar    1  UNL1       -0.0003
     24 C         137.5750  141.1478  163.1564 C.ar    1  UNL1        0.0008
     25 C         137.9879  141.1084  164.5980 C.ar    1  UNL1        0.0111
     26 C         138.6534  139.8846  165.1543 C.ar    1  UNL1        0.0537
     27 CL        139.0663  139.8452  166.5958 Cl      1  UNL1       -0.0826
@<TRIPOS>BOND
     1    17    18    1
     2    18    16    1
     3    16    15    1
     4    15     9    1
     5     9    10   ar
     6    10    11   ar
     7    11    12   ar
     8    12     8    1
     9     8     7    1
    10     7     1    1
    11     1     2    1
    12     2     3    1
    13     3     4    1
    14     4    19    1
    15    19    20    1
    16    20    21    1
    17    21    22   ar
    18    22    23   ar
    19    23    24   ar
    20    24    25   ar
    21    25    26   ar
    22    26    27    1
    23     4     5    1
    24     5     6    1
    25    12    13   ar
    26    13    14   ar
    27    14     9   ar
    28     6     1    1
    29    26    21   ar
@<TRIPOS>MOLECULE
*****
 27 29 0 0 0
SMALL
GASTEIGER

@<TRIPOS>ATOM
      1 N         139.9171  138.4748  163.2050 N.3     1  UNL1       -0.2700
      2 C         139.6784  138.4666  164.6859 C.3     1  UNL1        0.0897
      3 C         140.7154  139.0234  165.6157 C.3     1  UNL1        0.0897
      4 N         141.9910  139.5883  165.0647 N.3     1  UNL1       -0.2700
      5 C         142.2297  139.5965  163.5839 C.3     1  UNL1        0.0897
      6 C         141.1927  139.0397  162.6540 C.3     1  UNL1        0.0897
      7 C         138.8801  137.9180  162.2751 C.3     1  UNL1        0.0769
      8 C         137.7321  138.7757  161.8318 C.3     1  UNL1        0.0437
      9 C         137.9872  143.2518  162.2186 C.ar    1  UNL1        0.1387
     10 C         137.5376  142.4226  163.3849 C.ar    1  UNL1        0.0366
     11 C         137.4526  140.9306  163.2560 C.ar    1  UNL1       -0.0011
     12 C         137.8172  140.2678  161.9608 C.ar    1  UNL1       -0.0206
     13 C         138.2668  141.0969  160.7945 C.ar    1  UNL1       -0.0011
     14 C         138.3518  142.5890  160.9234 C.ar    1  UNL1        0.0366
     15 O         138.0722  144.7438  162.3476 O.3     1  UNL1       -0.4724
     16 C         139.4099  145.4109  162.4715 C.3     1  UNL1        0.2434
     17 F         141.0654  143.5747  163.2702 F       1  UNL1       -0.2302
     18 C         140.4089  144.9084  163.4713 C.3     1  UNL1        0.2403
     19 C         143.0280  140.1451  165.9946 C.3     1  UNL1        0.0769
     20 C         143.0758  141.6192  166.2685 C.3     1  UNL1        0.0445
     21 C         142.4582  142.1699  167.5196 C.ar    1  UNL1       -0.0102
     22 C         143.2738  142.2779  168.7738 C.ar    1  UNL1       -0.0034
     23 C         142.6562  142.8287  170.0250 C.ar    1  UNL1       -0.0003
     24 C         141.2230  143.2713  170.0218 C.ar    1  UNL1        0.0008
     25 C         140.4073  143.1632  168.7676 C.ar    1  UNL1        0.0111
     26 C         141.0250  142.6125  167.5164 C.ar    1  UNL1        0.0537
     27 CL        140.2094  142.5045  166.2622 Cl      1  UNL1       -0.0826
@<TRIPOS>BOND
     1    17    18    1
     2    18    16    1
     3    16    15    1
     4    15     9    1
     5     9    10   ar
     6    10    11   ar
     7    11    12   ar
     8    12     8    1
     9     8     7    1
    10     7     1    1
    11     1     2    1
    12     2     3    1
    13     3     4    1
    14     4    19    1
    15    19    20    1
    16    20    21    1
    17    21    22   ar
    18    22    23   ar
    19    23    24   ar
    20    24    25   ar
    21    25    26   ar
    22    26    27    1
    23     4     5    1
    24     5     6    1
    25    12    13   ar
    26    13    14   ar
    27    14     9   ar
    28     6     1    1
    29    26    21   ar
