@<TRIPOS>MOLECULE
*****
 33 36 0 0 0
SMALL
GASTEIGER

@<TRIPOS>ATOM
      1 N         142.2062  139.8007  159.7430 N.3     1  UNL1       -0.2668
      2 C         140.7349  140.0919  159.7625 C.3     1  UNL1        0.1035
      3 C         140.2512  141.4977  159.9612 C.3     1  UNL1        0.1470
      4 C         139.7674  142.9037  160.1599 C.3     1  UNL1        0.1035
      5 N         140.7550  144.0184  160.3390 N.3     1  UNL1       -0.2673
      6 C         142.2264  143.7271  160.3195 C.3     1  UNL1        0.1035
      7 C         142.7101  142.3213  160.1208 C.3     1  UNL1        0.1470
      8 C         143.1938  140.9154  159.9221 C.3     1  UNL1        0.1035
      9 O         141.2388  142.6124  160.1403 O.3     1  UNL1       -0.3530
     10 C         142.6900  138.3948  159.5442 C.3     1  UNL1        0.0989
     11 C         143.0209  137.5406  160.7320 C.3     1  UNL1        0.1443
     12 C         139.5360  137.5577  164.6988 C.3     1  UNL1        0.0540
     13 C         140.7644  137.8169  163.8780 C.ar    1  UNL1        0.0801
     14 C         141.9532  138.6275  164.3020 C.ar    1  UNL1        0.0308
     15 C         142.9433  138.6226  163.1750 C.ar    1  UNL1        0.0572
     16 C         144.2762  139.3105  163.1694 C.3     1  UNL1        0.0517
     17 N         142.3662  137.8090  162.0547 N.ar    1  UNL1       -0.2538
     18 N         141.0196  137.3111  162.4891 N.ar    1  UNL1       -0.1739
     19 C         140.2713  145.4242  160.5377 C.3     1  UNL1        0.0913
     20 C         139.9786  145.9284  161.9199 C.3     1  UNL1        0.1087
     21 N         141.0857  146.0472  162.9249 N.3     1  UNL1       -0.1780
     22 H         140.8631  146.8489  163.5149 H       1  UNL1        0.1488
     23 S         141.3884  144.9026  163.8460 S.O2    1  UNL1        0.0603
     24 O         142.8519  145.0554  163.5548 O.2     1  UNL1       -0.1530
     25 O         139.9250  144.7499  164.1371 O.2     1  UNL1       -0.1530
     26 C         141.6911  143.7580  164.7670 C.ar    1  UNL1        0.1220
     27 C         143.0832  143.2045  164.8431 C.ar    1  UNL1        0.0206
     28 C         143.3859  142.0599  165.7641 C.ar    1  UNL1        0.0116
     29 C         142.2965  141.4689  166.6090 C.ar    1  UNL1        0.0685
     30 C         140.9045  142.0224  166.5330 C.ar    1  UNL1        0.0116
     31 C         140.6018  143.1670  165.6120 C.ar    1  UNL1        0.0206
     32 C         142.5992  140.3243  167.5301 C.1     1  UNL1        0.1004
     33 N         142.9019  139.1797  168.4512 N.1     1  UNL1       -0.1908
@<TRIPOS>BOND
     1    12    13    1
     2    13    14   ar
     3    14    15   ar
     4    15    16    1
     5    15    17   ar
     6    17    11    1
     7    11    10    1
     8    10     1    1
     9     1     2    1
    10     2     3    1
    11     3     4    1
    12     4     5    1
    13     5    19    1
    14    19    20    1
    15    20    21    1
    16    21    23    1
    17    23    24    2
    18    23    25    2
    19    23    26    1
    20    26    27   ar
    21    27    28   ar
    22    28    29   ar
    23    29    32    1
    24    32    33    3
    25    29    30   ar
    26    30    31   ar
    27     5     6    1
    28     6     7    1
    29     7     8    1
    30     7     9    1
    31    17    18   ar
    32    18    13   ar
    33     8     1    1
    34     9     3    1
    35    31    26   ar
    36    21    22    1
@<TRIPOS>MOLECULE
*****
 33 36 0 0 0
SMALL
GASTEIGER

@<TRIPOS>ATOM
      1 N         143.3096  140.1816  160.4470 N.3     1  UNL1       -0.2668
      2 C         142.0520  140.3981  159.6587 C.3     1  UNL1        0.1035
      3 C         141.4149  141.7555  159.6208 C.3     1  UNL1        0.1470
      4 C         140.7778  143.1130  159.5830 C.3     1  UNL1        0.1035
      5 N         141.3982  144.2539  160.3335 N.3     1  UNL1       -0.2673
      6 C         142.6559  144.0373  161.1220 C.3     1  UNL1        0.1035
      7 C         143.2930  142.6799  161.1598 C.3     1  UNL1        0.1470
      8 C         143.9300  141.3225  161.1976 C.3     1  UNL1        0.1035
      9 O         142.0354  142.8964  160.3714 O.3     1  UNL1       -0.3530
     10 C         143.9467  138.8241  160.4849 C.3     1  UNL1        0.0989
     11 C         143.8148  137.9675  161.7092 C.3     1  UNL1        0.1443
     12 C         138.7297  137.5216  163.0592 C.3     1  UNL1        0.0540
     13 C         140.2055  137.7812  163.1247 C.ar    1  UNL1        0.0801
     14 C         140.9659  138.2487  164.3303 C.ar    1  UNL1        0.0308
     15 C         142.4105  138.3754  163.9467 C.ar    1  UNL1        0.0572
     16 C         143.5267  138.8142  164.8476 C.3     1  UNL1        0.0517
     17 N         142.5429  137.9862  162.5042 N.ar    1  UNL1       -0.2538
     18 N         141.1802  137.6190  161.9961 N.ar    1  UNL1       -0.1739
     19 C         140.7612  145.6113  160.2957 C.3     1  UNL1        0.0913
     20 C         139.7224  145.9809  161.3128 C.3     1  UNL1        0.1087
     21 N         139.9952  145.7733  162.7731 N.3     1  UNL1       -0.1780
     22 H         139.5143  146.5219  163.2718 H       1  UNL1        0.1488
     23 S         139.5980  144.4872  163.4348 S.O2    1  UNL1        0.0603
     24 O         138.3462  144.4491  162.6093 O.2     1  UNL1       -0.1530
     25 O         140.8498  144.5252  164.2603 O.2     1  UNL1       -0.1530
     26 C         139.2008  143.2009  164.0966 C.ar    1  UNL1        0.1220
     27 C         138.1336  142.3417  163.4860 C.ar    1  UNL1        0.0206
     28 C         137.7364  141.0555  164.1477 C.ar    1  UNL1        0.0116
     29 C         138.4064  140.6286  165.4201 C.ar    1  UNL1        0.0685
     30 C         139.4736  141.4878  166.0307 C.ar    1  UNL1        0.0116
     31 C         139.8708  142.7740  165.3689 C.ar    1  UNL1        0.0206
     32 C         138.0092  139.3423  166.0819 C.1     1  UNL1        0.1004
     33 N         137.6120  138.0562  166.7437 N.1     1  UNL1       -0.1908
@<TRIPOS>BOND
     1    12    13    1
     2    13    14   ar
     3    14    15   ar
     4    15    16    1
     5    15    17   ar
     6    17    11    1
     7    11    10    1
     8    10     1    1
     9     1     2    1
    10     2     3    1
    11     3     4    1
    12     4     5    1
    13     5    19    1
    14    19    20    1
    15    20    21    1
    16    21    23    1
    17    23    24    2
    18    23    25    2
    19    23    26    1
    20    26    27   ar
    21    27    28   ar
    22    28    29   ar
    23    29    32    1
    24    32    33    3
    25    29    30   ar
    26    30    31   ar
    27     5     6    1
    28     6     7    1
    29     7     8    1
    30     7     9    1
    31    17    18   ar
    32    18    13   ar
    33     8     1    1
    34     9     3    1
    35    31    26   ar
    36    21    22    1
@<TRIPOS>MOLECULE
*****
 33 36 0 0 0
SMALL
GASTEIGER

@<TRIPOS>ATOM
      1 N         138.0328  139.8347  161.7654 N.3     1  UNL1       -0.2668
      2 C         138.8158  140.4114  160.6234 C.3     1  UNL1        0.1035
      3 C         139.0965  141.8841  160.5745 C.3     1  UNL1        0.1470
      4 C         139.3772  143.3569  160.5257 C.3     1  UNL1        0.1035
      5 N         138.8748  144.2528  161.6188 N.3     1  UNL1       -0.2673
      6 C         138.0917  143.6759  162.7609 C.3     1  UNL1        0.1035
      7 C         137.8111  142.2033  162.8097 C.3     1  UNL1        0.1470
      8 C         137.5304  140.7306  162.8585 C.3     1  UNL1        0.1035
      9 O         138.5941  142.7800  161.6677 O.3     1  UNL1       -0.3530
     10 C         137.7521  138.3619  161.8142 C.3     1  UNL1        0.0989
     11 C         138.5960  137.4656  162.6713 C.3     1  UNL1        0.1443
     12 C         143.7813  137.9884  161.8233 C.3     1  UNL1        0.0540
     13 C         142.4341  138.0122  162.4822 C.ar    1  UNL1        0.0801
     14 C         142.1440  138.4743  163.8795 C.ar    1  UNL1        0.0308
     15 C         140.6708  138.3258  164.1204 C.ar    1  UNL1        0.0572
     16 C         139.9455  138.6705  165.3872 C.3     1  UNL1        0.0517
     17 N         140.0506  137.7719  162.8720 N.ar    1  UNL1       -0.2538
     18 N         141.1403  137.5781  161.8595 N.ar    1  UNL1       -0.1739
     19 C         139.1555  145.7254  161.5700 C.3     1  UNL1        0.0913
     20 C         140.3086  146.2952  162.3419 C.3     1  UNL1        0.1087
     21 N         141.6130  145.5566  162.3959 N.3     1  UNL1       -0.1780
     22 H         142.3406  146.2548  162.5493 H       1  UNL1        0.1488
     23 S         141.8234  144.4800  163.4189 S.O2    1  UNL1        0.0603
     24 O         140.9302  145.2137  164.3748 O.2     1  UNL1       -0.1530
     25 O         142.7165  143.7462  162.4630 O.2     1  UNL1       -0.1530
     26 C         142.0338  143.4033  164.4419 C.ar    1  UNL1        0.1220
     27 C         143.3266  142.6433  164.4758 C.ar    1  UNL1        0.0206
     28 C         143.5371  141.5666  165.4988 C.ar    1  UNL1        0.0116
     29 C         142.4547  141.2500  166.4878 C.ar    1  UNL1        0.0685
     30 C         141.1620  142.0100  166.4539 C.ar    1  UNL1        0.0116
     31 C         140.9515  143.0866  165.4310 C.ar    1  UNL1        0.0206
     32 C         142.6652  140.1733  167.5109 C.1     1  UNL1        0.1004
     33 N         142.8756  139.0967  168.5339 N.1     1  UNL1       -0.1908
@<TRIPOS>BOND
     1    12    13    1
     2    13    14   ar
     3    14    15   ar
     4    15    16    1
     5    15    17   ar
     6    17    11    1
     7    11    10    1
     8    10     1    1
     9     1     2    1
    10     2     3    1
    11     3     4    1
    12     4     5    1
    13     5    19    1
    14    19    20    1
    15    20    21    1
    16    21    23    1
    17    23    24    2
    18    23    25    2
    19    23    26    1
    20    26    27   ar
    21    27    28   ar
    22    28    29   ar
    23    29    32    1
    24    32    33    3
    25    29    30   ar
    26    30    31   ar
    27     5     6    1
    28     6     7    1
    29     7     8    1
    30     7     9    1
    31    17    18   ar
    32    18    13   ar
    33     8     1    1
    34     9     3    1
    35    31    26   ar
    36    21    22    1
@<TRIPOS>MOLECULE
*****
 33 36 0 0 0
SMALL
GASTEIGER

@<TRIPOS>ATOM
      1 N         144.6154  141.9911  163.3598 N.3     1  UNL1       -0.2668
      2 C         144.0785  141.9173  161.9612 C.3     1  UNL1        0.1035
      3 C         142.9920  142.8549  161.5245 C.3     1  UNL1        0.1470
      4 C         141.9056  143.7924  161.0878 C.3     1  UNL1        0.1035
      5 N         141.3561  144.8037  162.0498 N.3     1  UNL1       -0.2673
      6 C         141.8931  144.8774  163.4485 C.3     1  UNL1        0.1035
      7 C         142.9795  143.9398  163.8852 C.3     1  UNL1        0.1470
      8 C         144.0659  143.0023  164.3218 C.3     1  UNL1        0.1035
      9 O         142.4426  143.8661  162.4865 O.3     1  UNL1       -0.3530
     10 C         145.7019  141.0535  163.7965 C.3     1  UNL1        0.0989
     11 C         145.3495  139.7363  164.4215 C.3     1  UNL1        0.1443
     12 C         141.0719  137.6741  162.1127 C.3     1  UNL1        0.0540
     13 C         142.0200  138.1991  163.1496 C.ar    1  UNL1        0.0801
     14 C         141.7567  138.2813  164.6241 C.ar    1  UNL1        0.0308
     15 C         142.9719  138.8672  165.2800 C.ar    1  UNL1        0.0572
     16 C         143.1428  139.1275  166.7473 C.3     1  UNL1        0.0517
     17 N         143.9862  139.1470  164.2109 N.ar    1  UNL1       -0.2538
     18 N         143.3979  138.7341  162.8943 N.ar    1  UNL1       -0.1739
     19 C         140.2697  145.7412  161.6132 C.3     1  UNL1        0.0913
     20 C         138.9259  145.6937  162.2782 C.3     1  UNL1        0.1087
     21 N         138.2706  144.3724  162.5515 N.3     1  UNL1       -0.1780
     22 H         138.4346  143.7874  161.7322 H       1  UNL1        0.1488
     23 S         138.6793  143.5659  163.7483 S.O2    1  UNL1        0.0603
     24 O         138.4426  144.7556  164.6308 O.2     1  UNL1       -0.1530
     25 O         138.9160  142.3763  162.8659 O.2     1  UNL1       -0.1530
     26 C         139.0880  142.7594  164.9452 C.ar    1  UNL1        0.1220
     27 C         139.9104  143.3903  166.0295 C.ar    1  UNL1        0.0206
     28 C         140.3192  142.5838  167.2263 C.ar    1  UNL1        0.0116
     29 C         139.9054  141.1464  167.3389 C.ar    1  UNL1        0.0685
     30 C         139.0830  140.5155  166.2547 C.ar    1  UNL1        0.0116
     31 C         138.6743  141.3220  165.0578 C.ar    1  UNL1        0.0206
     32 C         140.3141  140.3398  168.5358 C.1     1  UNL1        0.1004
     33 N         140.7228  139.5333  169.7327 N.1     1  UNL1       -0.1908
@<TRIPOS>BOND
     1    12    13    1
     2    13    14   ar
     3    14    15   ar
     4    15    16    1
     5    15    17   ar
     6    17    11    1
     7    11    10    1
     8    10     1    1
     9     1     2    1
    10     2     3    1
    11     3     4    1
    12     4     5    1
    13     5    19    1
    14    19    20    1
    15    20    21    1
    16    21    23    1
    17    23    24    2
    18    23    25    2
    19    23    26    1
    20    26    27   ar
    21    27    28   ar
    22    28    29   ar
    23    29    32    1
    24    32    33    3
    25    29    30   ar
    26    30    31   ar
    27     5     6    1
    28     6     7    1
    29     7     8    1
    30     7     9    1
    31    17    18   ar
    32    18    13   ar
    33     8     1    1
    34     9     3    1
    35    31    26   ar
    36    21    22    1
@<TRIPOS>MOLECULE
*****
 33 36 0 0 0
SMALL
GASTEIGER

@<TRIPOS>ATOM
      1 N         144.6440  141.5389  164.0502 N.3     1  UNL1       -0.2668
      2 C         144.2932  140.0931  164.2409 C.3     1  UNL1        0.1035
      3 C         143.4408  139.6750  165.4022 C.3     1  UNL1        0.1470
      4 C         142.5884  139.2569  166.5635 C.3     1  UNL1        0.1035
      5 N         142.0868  140.2847  167.5341 N.3     1  UNL1       -0.2673
      6 C         142.4377  141.7306  167.3434 C.3     1  UNL1        0.1035
      7 C         143.2901  142.1486  166.1821 C.3     1  UNL1        0.1470
      8 C         144.1425  142.5667  165.0208 C.3     1  UNL1        0.1035
      9 O         142.9393  140.7028  166.3728 O.3     1  UNL1       -0.3530
     10 C         145.4964  141.9570  162.8889 C.3     1  UNL1        0.0989
     11 C         144.8592  142.2912  161.5728 C.3     1  UNL1        0.1443
     12 C         140.6188  145.4374  161.5944 C.3     1  UNL1        0.0540
     13 C         141.4897  144.2176  161.5376 C.ar    1  UNL1        0.0801
     14 C         141.0165  142.8030  161.3786 C.ar    1  UNL1        0.0308
     15 C         142.2212  141.9092  161.3724 C.ar    1  UNL1        0.0572
     16 C         142.2101  140.4155  161.2352 C.3     1  UNL1        0.0517
     17 N         143.4388  142.7714  161.5276 N.ar    1  UNL1       -0.2538
     18 N         142.9867  144.1980  161.6296 N.ar    1  UNL1       -0.1739
     19 C         141.2345  139.8666  168.6954 C.3     1  UNL1        0.0913
     20 C         139.7750  140.2124  168.7174 C.3     1  UNL1        0.1087
     21 N         138.7849  139.3320  168.0142 N.3     1  UNL1       -0.1780
     22 H         137.8757  139.5129  168.4396 H       1  UNL1        0.1488
     23 S         138.5995  139.4482  166.5303 S.O2    1  UNL1        0.0603
     24 O         139.1179  140.8550  166.5756 O.2     1  UNL1       -0.1530
     25 O         138.0810  138.0414  166.4849 O.2     1  UNL1       -0.1530
     26 C         138.4140  139.5643  165.0463 C.ar    1  UNL1        0.1220
     27 C         137.8693  140.8309  164.4554 C.ar    1  UNL1        0.0206
     28 C         137.6839  140.9471  162.9715 C.ar    1  UNL1        0.0116
     29 C         138.0430  139.7967  162.0784 C.ar    1  UNL1        0.0685
     30 C         138.5877  138.5301  162.6693 C.ar    1  UNL1        0.0116
     31 C         138.7732  138.4140  164.1532 C.ar    1  UNL1        0.0206
     32 C         137.8575  139.9129  160.5944 C.1     1  UNL1        0.1004
     33 N         137.6720  140.0290  159.1105 N.1     1  UNL1       -0.1908
@<TRIPOS>BOND
     1    12    13    1
     2    13    14   ar
     3    14    15   ar
     4    15    16    1
     5    15    17   ar
     6    17    11    1
     7    11    10    1
     8    10     1    1
     9     1     2    1
    10     2     3    1
    11     3     4    1
    12     4     5    1
    13     5    19    1
    14    19    20    1
    15    20    21    1
    16    21    23    1
    17    23    24    2
    18    23    25    2
    19    23    26    1
    20    26    27   ar
    21    27    28   ar
    22    28    29   ar
    23    29    32    1
    24    32    33    3
    25    29    30   ar
    26    30    31   ar
    27     5     6    1
    28     6     7    1
    29     7     8    1
    30     7     9    1
    31    17    18   ar
    32    18    13   ar
    33     8     1    1
    34     9     3    1
    35    31    26   ar
    36    21    22    1
@<TRIPOS>MOLECULE
*****
 33 36 0 0 0
SMALL
GASTEIGER

@<TRIPOS>ATOM
      1 N         144.7512  141.4713  163.3784 N.3     1  UNL1       -0.2668
      2 C         144.1897  142.7188  163.9935 C.3     1  UNL1        0.1035
      3 C         143.3826  143.6686  163.1590 C.3     1  UNL1        0.1470
      4 C         142.5754  144.6185  162.3245 C.3     1  UNL1        0.1035
      5 N         142.3299  144.3208  160.8750 N.3     1  UNL1       -0.2673
      6 C         142.8915  143.0732  160.2600 C.3     1  UNL1        0.1035
      7 C         143.6986  142.1234  161.0944 C.3     1  UNL1        0.1470
      8 C         144.5057  141.1736  161.9289 C.3     1  UNL1        0.1035
      9 O         143.1370  143.3709  161.7095 O.3     1  UNL1       -0.3530
     10 C         145.5584  140.5214  164.2129 C.3     1  UNL1        0.0989
     11 C         145.0874  139.1112  164.4114 C.3     1  UNL1        0.1443
     12 C         140.2323  137.7976  162.8042 C.3     1  UNL1        0.0540
     13 C         141.3876  138.1999  163.6721 C.ar    1  UNL1        0.0801
     14 C         141.3323  138.4612  165.1482 C.ar    1  UNL1        0.0308
     15 C         142.7116  138.8343  165.6048 C.ar    1  UNL1        0.0572
     16 C         143.1128  139.1778  167.0088 C.3     1  UNL1        0.0517
     17 N         143.6192  138.8037  164.4109 N.ar    1  UNL1       -0.2538
     18 N         142.8009  138.4116  163.2165 N.ar    1  UNL1       -0.1739
     19 C         141.5228  145.2706  160.0405 C.3     1  UNL1        0.0913
     20 C         140.0263  145.1679  160.0228 C.3     1  UNL1        0.1087
     21 N         139.2473  145.3464  161.2922 N.3     1  UNL1       -0.1780
     22 H         138.3358  145.7204  161.0281 H       1  UNL1        0.1488
     23 S         138.9900  144.1695  162.1859 S.O2    1  UNL1        0.0603
     24 O         139.4436  144.9701  163.3705 O.2     1  UNL1       -0.1530
     25 O         138.5365  143.3690  161.0013 O.2     1  UNL1       -0.1530
     26 C         138.7327  142.9926  163.0797 C.ar    1  UNL1        0.1220
     27 C         137.9194  141.8354  162.5804 C.ar    1  UNL1        0.0206
     28 C         137.6621  140.6585  163.4741 C.ar    1  UNL1        0.0116
     29 C         138.2182  140.6389  164.8671 C.ar    1  UNL1        0.0685
     30 C         139.0315  141.7961  165.3664 C.ar    1  UNL1        0.0116
     31 C         139.2888  142.9730  164.4727 C.ar    1  UNL1        0.0206
     32 C         137.9609  139.4620  165.7608 C.1     1  UNL1        0.1004
     33 N         137.7036  138.2851  166.6546 N.1     1  UNL1       -0.1908
@<TRIPOS>BOND
     1    12    13    1
     2    13    14   ar
     3    14    15   ar
     4    15    16    1
     5    15    17   ar
     6    17    11    1
     7    11    10    1
     8    10     1    1
     9     1     2    1
    10     2     3    1
    11     3     4    1
    12     4     5    1
    13     5    19    1
    14    19    20    1
    15    20    21    1
    16    21    23    1
    17    23    24    2
    18    23    25    2
    19    23    26    1
    20    26    27   ar
    21    27    28   ar
    22    28    29   ar
    23    29    32    1
    24    32    33    3
    25    29    30   ar
    26    30    31   ar
    27     5     6    1
    28     6     7    1
    29     7     8    1
    30     7     9    1
    31    17    18   ar
    32    18    13   ar
    33     8     1    1
    34     9     3    1
    35    31    26   ar
    36    21    22    1
@<TRIPOS>MOLECULE
*****
 33 36 0 0 0
SMALL
GASTEIGER

@<TRIPOS>ATOM
      1 N         140.6905  142.6848  160.3038 N.3     1  UNL1       -0.2668
      2 C         142.0177  142.2006  160.8078 C.3     1  UNL1        0.1035
      3 C         142.1311  140.8443  161.4383 C.3     1  UNL1        0.1470
      4 C         142.2445  139.4879  162.0688 C.3     1  UNL1        0.1035
      5 N         141.0307  138.6158  162.1954 N.3     1  UNL1       -0.2673
      6 C         139.7034  139.1001  161.6914 C.3     1  UNL1        0.1035
      7 C         139.5900  140.4564  161.0609 C.3     1  UNL1        0.1470
      8 C         139.4767  141.8127  160.4304 C.3     1  UNL1        0.1035
      9 O         140.9172  139.9722  161.5648 O.3     1  UNL1       -0.3530
     10 C         140.5771  144.0411  159.6733 C.3     1  UNL1        0.0989
     11 C         140.2134  145.2302  160.5122 C.3     1  UNL1        0.1443
     12 C         137.6780  144.5364  165.0916 C.3     1  UNL1        0.0540
     13 C         138.7673  144.7390  164.0806 C.ar    1  UNL1        0.0801
     14 C         140.2343  144.8468  164.3746 C.ar    1  UNL1        0.0308
     15 C         140.9546  145.0439  163.0736 C.ar    1  UNL1        0.0572
     16 C         142.4365  145.1996  162.9011 C.3     1  UNL1        0.0517
     17 N         139.9327  145.0579  161.9756 N.ar    1  UNL1       -0.2538
     18 N         138.5810  144.8695  162.5979 N.ar    1  UNL1       -0.1739
     19 C         141.1440  137.2596  162.8259 C.3     1  UNL1        0.0913
     20 C         140.9449  137.1006  164.3041 C.3     1  UNL1        0.1087
     21 N         139.7204  137.6654  164.9610 N.3     1  UNL1       -0.1780
     22 H         139.3085  136.9128  165.5127 H       1  UNL1        0.1488
     23 S         139.8367  138.8540  165.8685 S.O2    1  UNL1        0.0603
     24 O         138.3443  138.8887  166.0144 O.2     1  UNL1       -0.1530
     25 O         141.3292  138.8192  165.7227 O.2     1  UNL1       -0.1530
     26 C         139.9531  140.0426  166.7762 C.ar    1  UNL1        0.1220
     27 C         139.6274  139.9076  168.2342 C.ar    1  UNL1        0.0206
     28 C         139.7438  141.0962  169.1418 C.ar    1  UNL1        0.0116
     29 C         140.1859  142.4196  168.5914 C.ar    1  UNL1        0.0685
     30 C         140.5116  142.5546  167.1334 C.ar    1  UNL1        0.0116
     31 C         140.3952  141.3660  166.2258 C.ar    1  UNL1        0.0206
     32 C         140.3023  143.6082  169.4991 C.1     1  UNL1        0.1004
     33 N         140.4188  144.7968  170.4066 N.1     1  UNL1       -0.1908
@<TRIPOS>BOND
     1    12    13    1
     2    13    14   ar
     3    14    15   ar
     4    15    16    1
     5    15    17   ar
     6    17    11    1
     7    11    10    1
     8    10     1    1
     9     1     2    1
    10     2     3    1
    11     3     4    1
    12     4     5    1
    13     5    19    1
    14    19    20    1
    15    20    21    1
    16    21    23    1
    17    23    24    2
    18    23    25    2
    19    23    26    1
    20    26    27   ar
    21    27    28   ar
    22    28    29   ar
    23    29    32    1
    24    32    33    3
    25    29    30   ar
    26    30    31   ar
    27     5     6    1
    28     6     7    1
    29     7     8    1
    30     7     9    1
    31    17    18   ar
    32    18    13   ar
    33     8     1    1
    34     9     3    1
    35    31    26   ar
    36    21    22    1
@<TRIPOS>MOLECULE
*****
 33 36 0 0 0
SMALL
GASTEIGER

@<TRIPOS>ATOM
      1 N         138.5219  142.6083  161.9113 N.3     1  UNL1       -0.2668
      2 C         139.2847  143.1945  160.7604 C.3     1  UNL1        0.1035
      3 C         140.0447  142.2969  159.8295 C.3     1  UNL1        0.1470
      4 C         140.8048  141.3993  158.8986 C.3     1  UNL1        0.1035
      5 N         140.8021  139.9156  159.1185 N.3     1  UNL1       -0.2673
      6 C         140.0393  139.3294  160.2695 C.3     1  UNL1        0.1035
      7 C         139.2792  140.2270  161.2003 C.3     1  UNL1        0.1470
      8 C         138.5192  141.1246  162.1312 C.3     1  UNL1        0.1035
      9 O         140.0420  140.8132  160.0495 O.3     1  UNL1       -0.3530
     10 C         137.7618  143.5059  162.8422 C.3     1  UNL1        0.0989
     11 C         138.4527  144.1183  164.0244 C.3     1  UNL1        0.1443
     12 C         143.6483  145.0220  163.7599 C.3     1  UNL1        0.0540
     13 C         142.3248  144.3851  164.0641 C.ar    1  UNL1        0.0801
     14 C         142.1154  143.0970  164.8038 C.ar    1  UNL1        0.0308
     15 C         140.6394  142.8403  164.8789 C.ar    1  UNL1        0.0572
     16 C         139.9817  141.6612  165.5325 C.3     1  UNL1        0.0517
     17 N         139.9367  143.9698  164.1857 N.ar    1  UNL1       -0.2538
     18 N         140.9783  144.9245  163.6821 N.ar    1  UNL1       -0.1739
     19 C         141.5622  139.0180  158.1876 C.3     1  UNL1        0.0913
     20 C         142.7885  138.3019  158.6708 C.3     1  UNL1        0.1087
     21 N         143.7923  139.0232  159.5206 N.3     1  UNL1       -0.1780
     22 H         143.7818  139.9992  159.2243 H       1  UNL1        0.1488
     23 S         143.6494  139.0225  161.0137 S.O2    1  UNL1        0.0603
     24 O         143.8292  140.5115  161.0317 O.2     1  UNL1       -0.1530
     25 O         143.4696  137.5334  160.9958 O.2     1  UNL1       -0.1530
     26 C         143.5066  139.0216  162.5070 C.ar    1  UNL1        0.1220
     27 C         142.3905  138.2556  163.1532 C.ar    1  UNL1        0.0206
     28 C         142.2476  138.2548  164.6463 C.ar    1  UNL1        0.0116
     29 C         143.2208  139.0200  165.4933 C.ar    1  UNL1        0.0685
     30 C         144.3369  139.7860  164.8471 C.ar    1  UNL1        0.0116
     31 C         144.4798  139.7868  163.3539 C.ar    1  UNL1        0.0206
     32 C         143.0779  139.0191  166.9865 C.1     1  UNL1        0.1004
     33 N         142.9351  139.0183  168.4797 N.1     1  UNL1       -0.1908
@<TRIPOS>BOND
     1    12    13    1
     2    13    14   ar
     3    14    15   ar
     4    15    16    1
     5    15    17   ar
     6    17    11    1
     7    11    10    1
     8    10     1    1
     9     1     2    1
    10     2     3    1
    11     3     4    1
    12     4     5    1
    13     5    19    1
    14    19    20    1
    15    20    21    1
    16    21    23    1
    17    23    24    2
    18    23    25    2
    19    23    26    1
    20    26    27   ar
    21    27    28   ar
    22    28    29   ar
    23    29    32    1
    24    32    33    3
    25    29    30   ar
    26    30    31   ar
    27     5     6    1
    28     6     7    1
    29     7     8    1
    30     7     9    1
    31    17    18   ar
    32    18    13   ar
    33     8     1    1
    34     9     3    1
    35    31    26   ar
    36    21    22    1
@<TRIPOS>MOLECULE
*****
 33 36 0 0 0
SMALL
GASTEIGER

@<TRIPOS>ATOM
      1 N         138.8235  143.2995  161.9295 N.3     1  UNL1       -0.2668
      2 C         138.1317  142.2618  161.0961 C.3     1  UNL1        0.1035
      3 C         138.9185  141.4347  160.1231 C.3     1  UNL1        0.1470
      4 C         139.7052  140.6075  159.1500 C.3     1  UNL1        0.1035
      5 N         141.1838  140.8180  159.0104 N.3     1  UNL1       -0.2673
      6 C         141.8756  141.8557  159.8439 C.3     1  UNL1        0.1035
      7 C         141.0888  142.6829  160.8169 C.3     1  UNL1        0.1470
      8 C         140.3021  143.5100  161.7899 C.3     1  UNL1        0.1035
      9 O         140.3970  141.6452  159.9835 O.3     1  UNL1       -0.3530
     10 C         138.0367  144.1267  162.9026 C.3     1  UNL1        0.0989
     11 C         137.7071  143.5776  164.2590 C.3     1  UNL1        0.1443
     12 C         138.4956  138.4343  165.1564 C.3     1  UNL1        0.0540
     13 C         138.6822  139.9223  165.1271 C.ar    1  UNL1        0.0801
     14 C         139.8430  140.6768  165.7045 C.ar    1  UNL1        0.0308
     15 C         139.6190  142.1380  165.4496 C.ar    1  UNL1        0.0572
     16 C         140.5336  143.2546  165.8579 C.3     1  UNL1        0.0517
     17 N         138.3198  142.2864  164.7147 N.ar    1  UNL1       -0.2538
     18 N         137.7408  140.9171  164.5154 N.ar    1  UNL1       -0.1739
     19 C         141.9706  139.9909  158.0374 C.3     1  UNL1        0.0913
     20 C         143.0913  139.1218  158.5261 C.3     1  UNL1        0.1087
     21 N         142.7993  137.9542  159.4214 N.3     1  UNL1       -0.1780
     22 H         143.4715  137.2250  159.1830 H       1  UNL1        0.1488
     23 S         142.8508  138.1203  160.9112 S.O2    1  UNL1        0.0603
     24 O         144.3419  138.2686  160.8432 O.2     1  UNL1       -0.1530
     25 O         141.3597  137.9720  160.9793 O.2     1  UNL1       -0.1530
     26 C         142.9023  138.2863  162.4012 C.ar    1  UNL1        0.1220
     27 C         144.0095  139.0795  163.0296 C.ar    1  UNL1        0.0206
     28 C         144.0610  139.2455  164.5195 C.ar    1  UNL1        0.0116
     29 C         143.0052  138.6184  165.3809 C.ar    1  UNL1        0.0685
     30 C         141.8980  137.8253  164.7525 C.ar    1  UNL1        0.0116
     31 C         141.8465  137.6592  163.2626 C.ar    1  UNL1        0.0206
     32 C         143.0567  138.7845  166.8709 C.1     1  UNL1        0.1004
     33 N         143.1081  138.9505  168.3607 N.1     1  UNL1       -0.1908
@<TRIPOS>BOND
     1    12    13    1
     2    13    14   ar
     3    14    15   ar
     4    15    16    1
     5    15    17   ar
     6    17    11    1
     7    11    10    1
     8    10     1    1
     9     1     2    1
    10     2     3    1
    11     3     4    1
    12     4     5    1
    13     5    19    1
    14    19    20    1
    15    20    21    1
    16    21    23    1
    17    23    24    2
    18    23    25    2
    19    23    26    1
    20    26    27   ar
    21    27    28   ar
    22    28    29   ar
    23    29    32    1
    24    32    33    3
    25    29    30   ar
    26    30    31   ar
    27     5     6    1
    28     6     7    1
    29     7     8    1
    30     7     9    1
    31    17    18   ar
    32    18    13   ar
    33     8     1    1
    34     9     3    1
    35    31    26   ar
    36    21    22    1
