@<TRIPOS>MOLECULE
*****
 33 35 0 0 0
SMALL
GASTEIGER

@<TRIPOS>ATOM
      1 C         141.7095  138.9323  166.0481 C.3     1  UNL1        0.0862
      2 C         141.4464  138.7729  164.5800 C.2     1  UNL1        0.2257
      3 O         142.4921  139.1750  163.5826 O.2     1  UNL1       -0.2749
      4 N         140.1376  138.2114  164.1092 N.am    1  UNL1       -0.2778
      5 C         139.0918  137.8093  165.1066 C.3     1  UNL1        0.1148
      6 C         139.8744  138.0520  162.6411 C.3     1  UNL1        0.0941
      7 C         138.4788  137.8004  162.1522 C.3     1  UNL1        0.0345
      8 C         137.6294  138.9456  161.6865 C.3     1  UNL1        0.1255
      9 C         137.9100  140.3353  162.1762 C.2     1  UNL1        0.3513
     10 N         137.6115  140.8638  163.5479 N.2     1  UNL1       -0.0350
     11 C         138.0554  142.2957  163.5997 C.2     1  UNL1        0.2317
     12 C         138.0120  143.3210  164.6937 C.2     1  UNL1        0.0498
     13 C         138.5415  144.7027  164.4480 C.2     1  UNL1       -0.0002
     14 C         139.1143  145.0592  163.1083 C.2     1  UNL1       -0.0172
     15 C         139.1577  144.0339  162.0143 C.3     1  UNL1        0.1037
     16 C         138.6283  142.6522  162.2600 C.2     1  UNL1        0.2174
     17 N         138.5384  141.4406  161.3803 N.2     1  UNL1       -0.0389
     18 C         142.7361  139.9173  166.5235 C.3     1  UNL1        0.0242
     19 C         142.3359  141.0326  167.4431 C.3     1  UNL1        0.1088
     20 C         142.6711  142.0324  166.3764 C.ar    1  UNL1       -0.0127
     21 C         141.6725  142.3459  165.3018 C.ar    1  UNL1       -0.0033
     22 C         142.0077  143.3457  164.2350 C.ar    1  UNL1        0.0064
     23 C         143.3414  144.0321  164.2428 C.ar    1  UNL1        0.0345
     24 BR        143.6766  145.0320  163.1760 Br      1  UNL1       -0.0490
     25 C         144.3400  143.7187  165.3173 C.ar    1  UNL1        0.0064
     26 C         144.0048  142.7188  166.3841 C.ar    1  UNL1       -0.0033
     27 C         141.9358  142.1481  168.3628 C.3     1  UNL1        0.0139
     28 C         142.8328  142.5421  169.4986 C.3     1  UNL1        0.0009
     29 C         140.6386  142.8695  168.1466 C.3     1  UNL1        0.0009
     30 C         142.0008  140.0328  168.5099 C.2     1  UNL1        0.3199
     31 O         143.0763  139.1581  169.0826 O.2     1  UNL1       -0.2498
     32 C         140.3144  139.8400  170.4768 C.3     1  UNL1        0.2556
     33 O         140.5900  139.9077  169.0040 O.3     1  UNL1       -0.4442
@<TRIPOS>BOND
     1    32    33    1
     2    33    30    1
     3    30    31    2
     4    30    19    1
     5    19    18    1
     6    18     1    1
     7     1     2    1
     8     2     3    2
     9     2     4   am
    10     4     5    1
    11     4     6    1
    12     6     7    1
    13     7     8    1
    14     8     9    1
    15     9    10    2
    16    10    11    1
    17    11    12    2
    18    12    13    1
    19    13    14    2
    20    14    15    1
    21    15    16    1
    22    16    17    2
    23    19    20    1
    24    20    21   ar
    25    21    22   ar
    26    22    23   ar
    27    23    24    1
    28    23    25   ar
    29    25    26   ar
    30    19    27    1
    31    27    28    1
    32    27    29    1
    33    17     9    1
    34    26    20   ar
    35    16    11    1
@<TRIPOS>MOLECULE
*****
 33 35 0 0 0
SMALL
GASTEIGER

@<TRIPOS>ATOM
      1 C         139.1350  141.9318  164.4866 C.3     1  UNL1        0.0862
      2 C         139.2606  143.3734  164.0912 C.2     1  UNL1        0.2257
      3 O         139.8474  144.3658  165.0508 O.2     1  UNL1       -0.2749
      4 N         138.7994  143.8224  162.7364 N.am    1  UNL1       -0.2778
      5 C         138.2126  142.8300  161.7769 C.3     1  UNL1        0.1148
      6 C         138.9250  145.2639  162.3410 C.3     1  UNL1        0.0941
      7 C         140.2529  145.8094  161.9061 C.3     1  UNL1        0.0345
      8 C         141.1530  144.9852  161.0339 C.3     1  UNL1        0.1255
      9 C         142.1157  144.0160  161.6534 C.2     1  UNL1        0.3513
     10 N         143.3357  144.3725  162.4500 N.2     1  UNL1       -0.0350
     11 C         144.0015  143.0969  162.8739 C.2     1  UNL1        0.2317
     12 C         145.2395  142.8300  163.6777 C.2     1  UNL1        0.0498
     13 C         145.6691  141.4183  163.9468 C.2     1  UNL1       -0.0002
     14 C         144.8606  140.2735  163.4122 C.2     1  UNL1       -0.0172
     15 C         143.6226  140.5404  162.6085 C.3     1  UNL1        0.1037
     16 C         143.1931  141.9521  162.3393 C.2     1  UNL1        0.2174
     17 N         142.0276  142.5202  161.5850 N.2     1  UNL1       -0.0389
     18 C         140.3139  141.0134  164.3581 C.3     1  UNL1        0.0242
     19 C         140.1321  139.5330  164.5168 C.3     1  UNL1        0.1088
     20 C         140.7100  139.6101  165.8988 C.ar    1  UNL1       -0.0127
     21 C         139.8202  139.9119  167.0681 C.ar    1  UNL1       -0.0033
     22 C         140.3981  139.9891  168.4502 C.ar    1  UNL1        0.0064
     23 C         141.8658  139.7645  168.6630 C.ar    1  UNL1        0.0345
     24 BR        142.4437  139.8417  170.0451 Br      1  UNL1       -0.0490
     25 C         142.7557  139.4627  167.4938 C.ar    1  UNL1        0.0064
     26 C         142.1778  139.3856  166.1117 C.ar    1  UNL1       -0.0033
     27 C         139.9503  138.0525  164.6755 C.3     1  UNL1        0.0139
     28 C         138.7647  137.5183  165.4231 C.3     1  UNL1        0.0009
     29 C         140.9542  137.1062  164.0867 C.3     1  UNL1        0.0009
     30 C         139.5542  139.4558  163.1348 C.2     1  UNL1        0.3199
     31 O         140.4266  139.7119  161.9417 O.2     1  UNL1       -0.2498
     32 C         137.6512  138.4248  161.6976 C.3     1  UNL1        0.2556
     33 O         138.1039  139.1226  162.9458 O.3     1  UNL1       -0.4442
@<TRIPOS>BOND
     1    32    33    1
     2    33    30    1
     3    30    31    2
     4    30    19    1
     5    19    18    1
     6    18     1    1
     7     1     2    1
     8     2     3    2
     9     2     4   am
    10     4     5    1
    11     4     6    1
    12     6     7    1
    13     7     8    1
    14     8     9    1
    15     9    10    2
    16    10    11    1
    17    11    12    2
    18    12    13    1
    19    13    14    2
    20    14    15    1
    21    15    16    1
    22    16    17    2
    23    19    20    1
    24    20    21   ar
    25    21    22   ar
    26    22    23   ar
    27    23    24    1
    28    23    25   ar
    29    25    26   ar
    30    19    27    1
    31    27    28    1
    32    27    29    1
    33    17     9    1
    34    26    20   ar
    35    16    11    1
@<TRIPOS>MOLECULE
*****
 33 35 0 0 0
SMALL
GASTEIGER

@<TRIPOS>ATOM
      1 C         142.8612  139.1223  166.2718 C.3     1  UNL1        0.0862
      2 C         142.6985  138.5376  164.9000 C.2     1  UNL1        0.2257
      3 O         141.5547  137.6114  164.6103 O.2     1  UNL1       -0.2749
      4 N         143.6797  138.8790  163.8180 N.am    1  UNL1       -0.2778
      5 C         144.8235  139.8051  164.1077 C.3     1  UNL1        0.1148
      6 C         143.5170  138.2943  162.4462 C.3     1  UNL1        0.0941
      7 C         143.4481  139.1964  161.2498 C.3     1  UNL1        0.0345
      8 C         142.1345  139.4379  160.5672 C.3     1  UNL1        0.1255
      9 C         141.0868  140.2798  161.2333 C.2     1  UNL1        0.3513
     10 N         140.7240  141.6886  160.8677 N.2     1  UNL1       -0.0350
     11 C         139.6310  142.1402  161.7903 C.2     1  UNL1        0.2317
     12 C         138.8801  143.4341  161.8992 C.2     1  UNL1        0.0498
     13 C         137.8164  143.5983  162.9440 C.2     1  UNL1       -0.0002
     14 C         137.5037  142.4686  163.8799 C.2     1  UNL1       -0.0172
     15 C         138.2546  141.1747  163.7711 C.3     1  UNL1        0.1037
     16 C         139.3182  141.0105  162.7263 C.2     1  UNL1        0.2174
     17 N         140.2180  139.8607  162.3820 N.2     1  UNL1       -0.0389
     18 C         141.7266  139.8691  166.9082 C.3     1  UNL1        0.0242
     19 C         142.0088  140.9678  167.8895 C.3     1  UNL1        0.1088
     20 C         142.1587  141.9404  166.7575 C.ar    1  UNL1       -0.0127
     21 C         140.9441  142.4431  166.0347 C.ar    1  UNL1       -0.0033
     22 C         141.0940  143.4157  164.9027 C.ar    1  UNL1        0.0064
     23 C         142.4584  143.8857  164.4934 C.ar    1  UNL1        0.0345
     24 BR        142.6082  144.8584  163.3613 Br      1  UNL1       -0.0490
     25 C         143.6729  143.3831  165.2161 C.ar    1  UNL1        0.0064
     26 C         143.5231  142.4105  166.3482 C.ar    1  UNL1       -0.0033
     27 C         142.2910  142.0666  168.8709 C.3     1  UNL1        0.0139
     28 C         141.2400  143.0948  169.1682 C.3     1  UNL1        0.0009
     29 C         143.6240  142.1373  169.5549 C.3     1  UNL1        0.0009
     30 C         141.8589  139.9952  169.0215 C.2     1  UNL1        0.3199
     31 O         142.9562  139.0172  169.3203 O.2     1  UNL1       -0.2498
     32 C         139.2695  140.1173  169.1953 C.3     1  UNL1        0.2556
     33 O         140.6116  140.0006  169.8549 O.3     1  UNL1       -0.4442
@<TRIPOS>BOND
     1    32    33    1
     2    33    30    1
     3    30    31    2
     4    30    19    1
     5    19    18    1
     6    18     1    1
     7     1     2    1
     8     2     3    2
     9     2     4   am
    10     4     5    1
    11     4     6    1
    12     6     7    1
    13     7     8    1
    14     8     9    1
    15     9    10    2
    16    10    11    1
    17    11    12    2
    18    12    13    1
    19    13    14    2
    20    14    15    1
    21    15    16    1
    22    16    17    2
    23    19    20    1
    24    20    21   ar
    25    21    22   ar
    26    22    23   ar
    27    23    24    1
    28    23    25   ar
    29    25    26   ar
    30    19    27    1
    31    27    28    1
    32    27    29    1
    33    17     9    1
    34    26    20   ar
    35    16    11    1
@<TRIPOS>MOLECULE
*****
 33 35 0 0 0
SMALL
GASTEIGER

@<TRIPOS>ATOM
      1 C         142.3276  138.5491  165.2702 C.3     1  UNL1        0.0862
      2 C         140.8459  138.6123  165.0444 C.2     1  UNL1        0.2257
      3 O         139.9427  139.1176  166.1302 O.2     1  UNL1       -0.2749
      4 N         140.2675  138.1701  163.7330 N.am    1  UNL1       -0.2778
      5 C         141.1707  137.6647  162.6472 C.3     1  UNL1        0.1148
      6 C         138.7859  138.2332  163.5073 C.3     1  UNL1        0.0941
      7 C         138.2205  137.9337  162.1506 C.3     1  UNL1        0.0345
      8 C         137.5587  139.0211  161.3571 C.3     1  UNL1        0.1255
      9 C         137.9596  140.4515  161.5653 C.2     1  UNL1        0.3513
     10 N         137.3016  141.4247  162.4979 N.2     1  UNL1       -0.0350
     11 C         138.0241  142.7345  162.3863 C.2     1  UNL1        0.2317
     12 C         137.8190  144.0551  163.0674 C.2     1  UNL1        0.0498
     13 C         138.7183  145.2120  162.7467 C.2     1  UNL1       -0.0002
     14 C         139.8228  145.0482  161.7451 C.2     1  UNL1       -0.0172
     15 C         140.0279  143.7276  161.0641 C.3     1  UNL1        0.1037
     16 C         139.1286  142.5708  161.3847 C.2     1  UNL1        0.2174
     17 N         139.0887  141.1598  160.8772 N.2     1  UNL1       -0.0389
     18 C         143.0193  139.6482  166.0208 C.3     1  UNL1        0.0242
     19 C         143.2049  140.9920  165.3807 C.3     1  UNL1        0.1088
     20 C         142.4768  141.6365  166.5228 C.ar    1  UNL1       -0.0127
     21 C         141.0952  142.1839  166.3181 C.ar    1  UNL1       -0.0033
     22 C         140.3670  142.8284  167.4602 C.ar    1  UNL1        0.0064
     23 C         141.0203  142.9255  168.8069 C.ar    1  UNL1        0.0345
     24 BR        140.2921  143.5701  169.9490 Br      1  UNL1       -0.0490
     25 C         142.4018  142.3782  169.0117 C.ar    1  UNL1        0.0064
     26 C         143.1300  141.7337  167.8696 C.ar    1  UNL1       -0.0033
     27 C         143.3905  142.3359  164.7407 C.3     1  UNL1        0.0139
     28 C         144.6075  143.1546  165.0549 C.3     1  UNL1        0.0009
     29 C         142.3591  142.8611  163.7866 C.3     1  UNL1        0.0009
     30 C         143.9331  140.3475  164.2387 C.2     1  UNL1        0.3199
     31 O         145.2793  139.7251  164.4632 O.2     1  UNL1       -0.2498
     32 C         144.1434  139.9461  161.6804 C.3     1  UNL1        0.2556
     33 O         143.3151  140.3254  162.8720 O.3     1  UNL1       -0.4442
@<TRIPOS>BOND
     1    32    33    1
     2    33    30    1
     3    30    31    2
     4    30    19    1
     5    19    18    1
     6    18     1    1
     7     1     2    1
     8     2     3    2
     9     2     4   am
    10     4     5    1
    11     4     6    1
    12     6     7    1
    13     7     8    1
    14     8     9    1
    15     9    10    2
    16    10    11    1
    17    11    12    2
    18    12    13    1
    19    13    14    2
    20    14    15    1
    21    15    16    1
    22    16    17    2
    23    19    20    1
    24    20    21   ar
    25    21    22   ar
    26    22    23   ar
    27    23    24    1
    28    23    25   ar
    29    25    26   ar
    30    19    27    1
    31    27    28    1
    32    27    29    1
    33    17     9    1
    34    26    20   ar
    35    16    11    1
@<TRIPOS>MOLECULE
*****
 33 35 0 0 0
SMALL
GASTEIGER

@<TRIPOS>ATOM
      1 C         139.6973  141.3837  163.6911 C.3     1  UNL1        0.0862
      2 C         139.3033  142.5180  162.7920 C.2     1  UNL1        0.2257
      3 O         139.1966  142.2994  161.3119 O.2     1  UNL1       -0.2749
      4 N         139.0160  143.8706  163.3730 N.am    1  UNL1       -0.2778
      5 C         139.1226  144.0892  164.8532 C.3     1  UNL1        0.1148
      6 C         138.6219  145.0049  162.4739 C.3     1  UNL1        0.0941
      7 C         139.6574  145.9817  162.0012 C.3     1  UNL1        0.0345
      8 C         140.8041  145.5095  161.1574 C.3     1  UNL1        0.1255
      9 C         141.9050  144.6984  161.7741 C.2     1  UNL1        0.3513
     10 N         142.2582  144.6552  163.2313 N.2     1  UNL1       -0.0350
     11 C         143.4175  143.7183  163.3997 C.2     1  UNL1        0.2317
     12 C         144.1892  143.2839  164.6103 C.2     1  UNL1        0.0498
     13 C         145.3242  142.3136  164.4678 C.2     1  UNL1       -0.0002
     14 C         145.6874  141.7777  163.1147 C.2     1  UNL1       -0.0172
     15 C         144.9156  142.2121  161.9041 C.3     1  UNL1        0.1037
     16 C         143.7807  143.1824  162.0466 C.2     1  UNL1        0.2174
     17 N         142.8459  143.7882  161.0419 N.2     1  UNL1       -0.0389
     18 C         141.1475  141.0711  163.9125 C.3     1  UNL1        0.0242
     19 C         141.5526  139.7285  164.4447 C.3     1  UNL1        0.1088
     20 C         141.1017  140.1360  165.8160 C.ar    1  UNL1       -0.0127
     21 C         139.8900  139.4976  166.4277 C.ar    1  UNL1       -0.0033
     22 C         139.4391  139.9051  167.7991 C.ar    1  UNL1        0.0064
     23 C         140.1999  140.9511  168.5587 C.ar    1  UNL1        0.0345
     24 BR        139.7490  141.3586  169.9302 Br      1  UNL1       -0.0490
     25 C         141.4116  141.5895  167.9471 C.ar    1  UNL1        0.0064
     26 C         141.8625  141.1820  166.5757 C.ar    1  UNL1       -0.0033
     27 C         141.9576  138.3858  164.9769 C.3     1  UNL1        0.0139
     28 C         143.1325  138.2691  165.9021 C.3     1  UNL1        0.0009
     29 C         141.1878  137.1599  164.5839 C.3     1  UNL1        0.0009
     30 C         142.0034  139.3210  163.0733 C.2     1  UNL1        0.3199
     31 O         140.9932  139.0963  161.9876 O.2     1  UNL1       -0.2498
     32 C         143.9019  138.4180  161.5467 C.3     1  UNL1        0.2556
     33 O         143.4646  139.1382  162.7877 O.3     1  UNL1       -0.4442
@<TRIPOS>BOND
     1    32    33    1
     2    33    30    1
     3    30    31    2
     4    30    19    1
     5    19    18    1
     6    18     1    1
     7     1     2    1
     8     2     3    2
     9     2     4   am
    10     4     5    1
    11     4     6    1
    12     6     7    1
    13     7     8    1
    14     8     9    1
    15     9    10    2
    16    10    11    1
    17    11    12    2
    18    12    13    1
    19    13    14    2
    20    14    15    1
    21    15    16    1
    22    16    17    2
    23    19    20    1
    24    20    21   ar
    25    21    22   ar
    26    22    23   ar
    27    23    24    1
    28    23    25   ar
    29    25    26   ar
    30    19    27    1
    31    27    28    1
    32    27    29    1
    33    17     9    1
    34    26    20   ar
    35    16    11    1
@<TRIPOS>MOLECULE
*****
 33 35 0 0 0
SMALL
GASTEIGER

@<TRIPOS>ATOM
      1 C         142.9026  140.4253  165.7230 C.3     1  UNL1        0.0862
      2 C         143.5672  140.5813  164.3873 C.2     1  UNL1        0.2257
      3 O         143.4691  139.4851  163.3682 O.2     1  UNL1       -0.2749
      4 N         144.3300  141.8335  164.0709 N.am    1  UNL1       -0.2778
      5 C         144.4281  142.9297  165.0900 C.3     1  UNL1        0.1148
      6 C         144.9946  141.9895  162.7352 C.3     1  UNL1        0.0941
      7 C         144.6774  143.1757  161.8736 C.3     1  UNL1        0.0345
      8 C         143.4021  143.2101  161.0849 C.3     1  UNL1        0.1255
      9 C         142.0958  143.4523  161.7813 C.2     1  UNL1        0.3513
     10 N         140.7387  143.0739  161.2665 N.2     1  UNL1       -0.0350
     11 C         139.7214  143.5031  162.2819 C.2     1  UNL1        0.2317
     12 C         138.2260  143.3909  162.3138 C.2     1  UNL1        0.0498
     13 C         137.4590  143.9224  163.4881 C.2     1  UNL1       -0.0002
     14 C         138.1874  144.5661  164.6306 C.2     1  UNL1       -0.0172
     15 C         139.6828  144.6783  164.5986 C.3     1  UNL1        0.1037
     16 C         140.4498  144.1467  163.4243 C.2     1  UNL1        0.2174
     17 N         141.9173  144.1153  163.1149 N.2     1  UNL1       -0.0389
     18 C         141.9995  139.2554  165.9793 C.3     1  UNL1        0.0242
     19 C         140.5188  139.3940  165.7840 C.3     1  UNL1        0.1088
     20 C         140.4594  140.3663  166.9247 C.ar    1  UNL1       -0.0127
     21 C         140.5265  141.8409  166.6575 C.ar    1  UNL1       -0.0033
     22 C         140.4671  142.8132  167.7982 C.ar    1  UNL1        0.0064
     23 C         140.3407  142.3110  169.2060 C.ar    1  UNL1        0.0345
     24 BR        140.2814  143.2834  170.3466 Br      1  UNL1       -0.0490
     25 C         140.2737  140.8366  169.4731 C.ar    1  UNL1        0.0064
     26 C         140.3331  139.8642  168.3325 C.ar    1  UNL1       -0.0033
     27 C         139.0380  139.5328  165.5888 C.3     1  UNL1        0.0139
     28 C         138.1099  138.4795  166.1174 C.3     1  UNL1        0.0009
     29 C         138.4853  140.7246  164.8650 C.3     1  UNL1        0.0009
     30 C         140.5781  138.4217  164.6434 C.2     1  UNL1        0.3199
     31 O         141.0137  137.0070  164.8858 O.2     1  UNL1       -0.2498
     32 C         139.9685  137.8454  162.1845 C.3     1  UNL1        0.2556
     33 O         140.2019  138.8642  163.2604 O.3     1  UNL1       -0.4442
@<TRIPOS>BOND
     1    32    33    1
     2    33    30    1
     3    30    31    2
     4    30    19    1
     5    19    18    1
     6    18     1    1
     7     1     2    1
     8     2     3    2
     9     2     4   am
    10     4     5    1
    11     4     6    1
    12     6     7    1
    13     7     8    1
    14     8     9    1
    15     9    10    2
    16    10    11    1
    17    11    12    2
    18    12    13    1
    19    13    14    2
    20    14    15    1
    21    15    16    1
    22    16    17    2
    23    19    20    1
    24    20    21   ar
    25    21    22   ar
    26    22    23   ar
    27    23    24    1
    28    23    25   ar
    29    25    26   ar
    30    19    27    1
    31    27    28    1
    32    27    29    1
    33    17     9    1
    34    26    20   ar
    35    16    11    1
@<TRIPOS>MOLECULE
*****
 33 35 0 0 0
SMALL
GASTEIGER

@<TRIPOS>ATOM
      1 C         139.9739  140.6530  162.4591 C.3     1  UNL1        0.0862
      2 C         140.9575  139.5220  162.5171 C.2     1  UNL1        0.2257
      3 O         141.5534  139.1130  163.8315 O.2     1  UNL1       -0.2749
      4 N         141.3452  138.8000  161.2608 N.am    1  UNL1       -0.2778
      5 C         140.7492  139.2090  159.9464 C.3     1  UNL1        0.1148
      6 C         142.3288  137.6689  161.3188 C.3     1  UNL1        0.0941
      7 C         143.8002  137.9500  161.2427 C.3     1  UNL1        0.0345
      8 C         144.2858  139.2678  160.7159 C.3     1  UNL1        0.1255
      9 C         144.2372  140.4878  161.5872 C.2     1  UNL1        0.3513
     10 N         144.7473  140.5872  162.9943 N.2     1  UNL1       -0.0350
     11 C         144.4953  141.9834  163.4812 C.2     1  UNL1        0.2317
     12 C         144.7861  142.6581  164.7890 C.2     1  UNL1        0.0498
     13 C         144.4111  144.0964  164.9905 C.2     1  UNL1       -0.0002
     14 C         143.7453  144.8599  163.8843 C.2     1  UNL1       -0.0172
     15 C         143.4545  144.1852  162.5766 C.3     1  UNL1        0.1037
     16 C         143.8295  142.7469  162.3751 C.2     1  UNL1        0.2174
     17 N         143.6700  141.8226  161.2045 N.2     1  UNL1       -0.0389
     18 C         140.4135  142.0472  162.7952 C.3     1  UNL1        0.0242
     19 C         139.5190  142.9417  163.6013 C.3     1  UNL1        0.1088
     20 C         139.9043  142.2030  164.8486 C.ar    1  UNL1       -0.0127
     21 C         141.2295  142.4694  165.4990 C.ar    1  UNL1       -0.0033
     22 C         141.6148  141.7307  166.7463 C.ar    1  UNL1        0.0064
     23 C         140.6749  140.7256  167.3433 C.ar    1  UNL1        0.0345
     24 BR        141.0602  139.9868  168.5906 Br      1  UNL1       -0.0490
     25 C         139.3497  140.4592  166.6929 C.ar    1  UNL1        0.0064
     26 C         138.9644  141.1979  165.4456 C.ar    1  UNL1       -0.0033
     27 C         138.6246  143.8363  164.4074 C.3     1  UNL1        0.0139
     28 C         137.1480  143.5763  164.4530 C.3     1  UNL1        0.0009
     29 C         139.2067  144.9907  165.1679 C.3     1  UNL1        0.0009
     30 C         139.1338  143.6804  162.3540 C.2     1  UNL1        0.3199
     31 O         137.8348  143.3717  161.6704 O.2     1  UNL1       -0.2498
     32 C         139.5865  146.1521  161.6937 C.3     1  UNL1        0.2556
     33 O         140.0475  144.7280  161.7902 O.3     1  UNL1       -0.4442
@<TRIPOS>BOND
     1    32    33    1
     2    33    30    1
     3    30    31    2
     4    30    19    1
     5    19    18    1
     6    18     1    1
     7     1     2    1
     8     2     3    2
     9     2     4   am
    10     4     5    1
    11     4     6    1
    12     6     7    1
    13     7     8    1
    14     8     9    1
    15     9    10    2
    16    10    11    1
    17    11    12    2
    18    12    13    1
    19    13    14    2
    20    14    15    1
    21    15    16    1
    22    16    17    2
    23    19    20    1
    24    20    21   ar
    25    21    22   ar
    26    22    23   ar
    27    23    24    1
    28    23    25   ar
    29    25    26   ar
    30    19    27    1
    31    27    28    1
    32    27    29    1
    33    17     9    1
    34    26    20   ar
    35    16    11    1
@<TRIPOS>MOLECULE
*****
 33 35 0 0 0
SMALL
GASTEIGER

@<TRIPOS>ATOM
      1 C         141.5990  140.8530  162.7892 C.3     1  UNL1        0.0862
      2 C         141.6154  141.2477  161.3421 C.2     1  UNL1        0.2257
      3 O         140.5064  140.8089  160.4324 O.2     1  UNL1       -0.2749
      4 N         142.7407  142.0813  160.8047 N.am    1  UNL1       -0.2778
      5 C         143.8497  142.5202  161.7144 C.3     1  UNL1        0.1148
      6 C         142.7570  142.4761  159.3576 C.3     1  UNL1        0.0941
      7 C         142.5782  143.9142  158.9705 C.3     1  UNL1        0.0345
      8 C         141.2465  144.5799  159.1528 C.3     1  UNL1        0.1255
      9 C         140.5552  144.5228  160.4827 C.2     1  UNL1        0.3513
     10 N         139.1976  143.9418  160.7466 N.2     1  UNL1       -0.0350
     11 C         138.9035  144.0966  162.2093 C.2     1  UNL1        0.2317
     12 C         137.7169  143.7088  163.0409 C.2     1  UNL1        0.0498
     13 C         137.7061  143.9976  164.5128 C.2     1  UNL1       -0.0002
     14 C         138.8818  144.6742  165.1530 C.2     1  UNL1       -0.0172
     15 C         140.0684  145.0620  164.3214 C.3     1  UNL1        0.1037
     16 C         140.0792  144.7731  162.8495 C.2     1  UNL1        0.2174
     17 N         141.1000  145.0366  161.7824 N.2     1  UNL1       -0.0389
     18 C         140.3760  141.1025  163.6209 C.3     1  UNL1        0.0242
     19 C         139.8021  139.9998  164.4603 C.3     1  UNL1        0.1088
     20 C         140.6215  140.4626  165.6284 C.ar    1  UNL1       -0.0127
     21 C         141.7864  139.6430  166.0991 C.ar    1  UNL1       -0.0033
     22 C         142.6058  140.1058  167.2671 C.ar    1  UNL1        0.0064
     23 C         142.2604  141.3881  167.9645 C.ar    1  UNL1        0.0345
     24 BR        143.0798  141.8509  169.1326 Br      1  UNL1       -0.0490
     25 C         141.0956  142.2076  167.4939 C.ar    1  UNL1        0.0064
     26 C         140.2761  141.7449  166.3258 C.ar    1  UNL1       -0.0033
     27 C         139.2283  138.8970  165.2998 C.3     1  UNL1        0.0139
     28 C         138.1473  139.1974  166.2954 C.3     1  UNL1        0.0009
     29 C         139.7354  137.4941  165.1437 C.3     1  UNL1        0.0009
     30 C         138.9827  139.5370  163.2923 C.2     1  UNL1        0.3199
     31 O         137.6987  140.2345  162.9535 O.2     1  UNL1       -0.2498
     32 C         138.7390  138.0367  161.1852 C.3     1  UNL1        0.2556
     33 O         139.4474  138.3767  162.4629 O.3     1  UNL1       -0.4442
@<TRIPOS>BOND
     1    32    33    1
     2    33    30    1
     3    30    31    2
     4    30    19    1
     5    19    18    1
     6    18     1    1
     7     1     2    1
     8     2     3    2
     9     2     4   am
    10     4     5    1
    11     4     6    1
    12     6     7    1
    13     7     8    1
    14     8     9    1
    15     9    10    2
    16    10    11    1
    17    11    12    2
    18    12    13    1
    19    13    14    2
    20    14    15    1
    21    15    16    1
    22    16    17    2
    23    19    20    1
    24    20    21   ar
    25    21    22   ar
    26    22    23   ar
    27    23    24    1
    28    23    25   ar
    29    25    26   ar
    30    19    27    1
    31    27    28    1
    32    27    29    1
    33    17     9    1
    34    26    20   ar
    35    16    11    1
@<TRIPOS>MOLECULE
*****
 33 35 0 0 0
SMALL
GASTEIGER

@<TRIPOS>ATOM
      1 C         139.6312  143.4215  166.2285 C.3     1  UNL1        0.0862
      2 C         138.9298  143.2610  164.9123 C.2     1  UNL1        0.2257
      3 O         137.7774  142.3089  164.7877 O.2     1  UNL1       -0.2749
      4 N         139.3808  144.0525  163.7207 N.am    1  UNL1       -0.2778
      5 C         140.5332  145.0046  163.8452 C.3     1  UNL1        0.1148
      6 C         138.6795  143.8920  162.4044 C.3     1  UNL1        0.0941
      7 C         138.9709  142.7016  161.5396 C.3     1  UNL1        0.0345
      8 C         140.2773  142.6076  160.8085 C.3     1  UNL1        0.1255
      9 C         141.5147  142.1734  161.5367 C.2     1  UNL1        0.3513
     10 N         141.7633  140.8141  162.1201 N.2     1  UNL1       -0.0350
     11 C         143.1230  140.8230  162.7534 C.2     1  UNL1        0.2317
     12 C         143.8987  139.7646  163.4800 C.2     1  UNL1        0.0498
     13 C         145.2663  140.0711  164.0146 C.2     1  UNL1       -0.0002
     14 C         145.8581  141.4359  163.8225 C.2     1  UNL1       -0.0172
     15 C         145.0824  142.4943  163.0959 C.3     1  UNL1        0.1037
     16 C         143.7149  142.1878  162.5613 C.2     1  UNL1        0.2174
     17 N         142.7209  143.0224  161.8094 N.2     1  UNL1       -0.0389
     18 C         140.7579  142.5016  166.5950 C.3     1  UNL1        0.0242
     19 C         140.6220  141.5810  167.7714 C.3     1  UNL1        0.1088
     20 C         140.1823  140.4768  166.8563 C.ar    1  UNL1       -0.0127
     21 C         138.7953  139.9166  166.9692 C.ar    1  UNL1       -0.0033
     22 C         138.3556  138.8124  166.0542 C.ar    1  UNL1        0.0064
     23 C         139.3028  138.2683  165.0262 C.ar    1  UNL1        0.0345
     24 BR        138.8630  137.1640  164.1111 Br      1  UNL1       -0.0490
     25 C         140.6897  138.8284  164.9133 C.ar    1  UNL1        0.0064
     26 C         141.1294  139.9326  165.8283 C.ar    1  UNL1       -0.0033
     27 C         140.4860  140.6602  168.9477 C.3     1  UNL1        0.0139
     28 C         141.5697  139.6692  169.2537 C.3     1  UNL1        0.0009
     29 C         139.2664  140.7304  169.8181 C.3     1  UNL1        0.0009
     30 C         141.0617  142.6852  168.6864 C.2     1  UNL1        0.3199
     31 O         140.0577  143.6674  169.2130 O.2     1  UNL1       -0.2498
     32 C         142.8791  143.0407  170.5087 C.3     1  UNL1        0.2556
     33 O         142.5054  142.8072  169.0749 O.3     1  UNL1       -0.4442
@<TRIPOS>BOND
     1    32    33    1
     2    33    30    1
     3    30    31    2
     4    30    19    1
     5    19    18    1
     6    18     1    1
     7     1     2    1
     8     2     3    2
     9     2     4   am
    10     4     5    1
    11     4     6    1
    12     6     7    1
    13     7     8    1
    14     8     9    1
    15     9    10    2
    16    10    11    1
    17    11    12    2
    18    12    13    1
    19    13    14    2
    20    14    15    1
    21    15    16    1
    22    16    17    2
    23    19    20    1
    24    20    21   ar
    25    21    22   ar
    26    22    23   ar
    27    23    24    1
    28    23    25   ar
    29    25    26   ar
    30    19    27    1
    31    27    28    1
    32    27    29    1
    33    17     9    1
    34    26    20   ar
    35    16    11    1
