@<TRIPOS>MOLECULE
*****
 38 44 0 0 0
SMALL
GASTEIGER

@<TRIPOS>ATOM
      1 N         140.7605  144.0111  163.3934 N.ar    1  UNL1       -0.3274
      2 C         141.2292  144.1346  161.9739 C.ar    1  UNL1        0.0599
      3 C         140.8703  145.0942  160.8783 C.ar    1  UNL1        0.0185
      4 C         141.5169  144.9696  159.5306 C.ar    1  UNL1        0.0162
      5 C         142.5224  143.8855  159.2785 C.ar    1  UNL1        0.0506
      6 C         142.8813  142.9259  160.3741 C.ar    1  UNL1        0.0161
      7 C         142.2347  143.0505  161.7218 C.ar    1  UNL1        0.0182
      8 C         142.3874  142.2570  162.9855 C.ar    1  UNL1        0.0147
      9 C         143.2385  141.0705  163.3290 C.ar    1  UNL1        0.0032
     10 C         143.1784  140.4777  164.7056 C.ar    1  UNL1        0.0509
     11 C         142.2672  141.0714  165.7387 C.ar    1  UNL1        0.0042
     12 C         141.4162  142.2579  165.3953 C.ar    1  UNL1       -0.0058
     13 C         141.4763  142.8507  164.0186 C.ar    1  UNL1        0.0556
     14 C         140.5051  142.8516  166.4284 C.3     1  UNL1        0.0342
     15 C         140.4450  142.2588  167.8049 C.3     1  UNL1        0.0524
     16 C         141.2960  141.0724  168.1484 C.ar    1  UNL1        0.0803
     17 N         141.4488  140.2789  169.4121 N.ar    1  UNL1       -0.1736
     18 N         142.4543  139.1947  169.1600 N.ar    1  UNL1       -0.2477
     19 C         142.9110  138.1674  170.1532 C.3     1  UNL1        0.1537
     20 C         142.9230  139.3182  167.7405 C.ar    1  UNL1        0.0963
     21 C         142.2071  140.4786  167.1153 C.ar    1  UNL1        0.0339
     22 C         144.1274  139.3170  164.7523 C.2     1  UNL1        0.2458
     23 O         144.3847  138.4356  165.9385 O.2     1  UNL1       -0.2701
     24 N         144.7741  139.1924  163.4045 N.am    1  UNL1       -0.2969
     25 C         144.2247  140.2761  162.5249 C.3     1  UNL1        0.1168
     26 H         145.4418  138.5179  163.1432 H       1  UNL1        0.1501
     27 N         143.1691  143.7609  157.9307 N.pl3   1  UNL1       -0.2825
     28 H         143.4051  144.5697  157.4214 H       1  UNL1        0.1551
     29 C         143.4560  142.4042  157.3590 C.ar    1  UNL1        0.2207
     30 N         142.3253  141.4782  157.0212 N.ar    1  UNL1       -0.2120
     31 C         142.6122  140.1214  156.4495 C.ar    1  UNL1        0.1034
     32 C         144.0298  139.6906  156.2156 C.ar    1  UNL1        0.0414
     33 C         145.1606  140.6166  156.5534 C.ar    1  UNL1        0.1034
     34 N         144.8736  141.9733  157.1251 N.ar    1  UNL1       -0.2120
     35 C         139.7528  144.8932  164.0690 C.3     1  UNL1        0.1059
     36 C         137.6892  143.6122  163.1468 C.3     1  UNL1        0.0020
     37 C         138.3353  144.4288  164.2265 C.3     1  UNL1        0.0226
     38 C         137.5637  144.7809  165.4638 C.3     1  UNL1        0.0020
@<TRIPOS>BOND
     1    36    37    1
     2    37    38    1
     3    37    35    1
     4    35     1    1
     5     1     2   ar
     6     2     3   ar
     7     3     4   ar
     8     4     5   ar
     9     5    27    1
    10    27    29    1
    11    29    30   ar
    12    30    31   ar
    13    31    32   ar
    14    32    33   ar
    15    33    34   ar
    16     5     6   ar
    17     6     7   ar
    18     7     8   ar
    19     8     9   ar
    20     9    10   ar
    21    10    11   ar
    22    11    12   ar
    23    12    13   ar
    24    12    14    1
    25    14    15    1
    26    15    16    1
    27    16    17   ar
    28    17    18   ar
    29    18    19    1
    30    18    20   ar
    31    20    21   ar
    32    10    22    1
    33    22    23    2
    34    22    24   am
    35    24    25    1
    36    13     1   ar
    37    21    16   ar
    38     7     2   ar
    39    13     8   ar
    40    34    29   ar
    41    25     9    1
    42    21    11    1
    43    27    28    1
    44    24    26    1
@<TRIPOS>MOLECULE
*****
 38 44 0 0 0
SMALL
GASTEIGER

@<TRIPOS>ATOM
      1 N         139.1571  141.8596  162.5046 N.ar    1  UNL1       -0.3274
      2 C         139.6834  142.6825  161.3663 C.ar    1  UNL1        0.0599
      3 C         139.1569  142.9386  159.9853 C.ar    1  UNL1        0.0185
      4 C         139.9176  143.8259  159.0452 C.ar    1  UNL1        0.0162
      5 C         141.2049  144.4572  159.4860 C.ar    1  UNL1        0.0506
      6 C         141.7314  144.2012  160.8670 C.ar    1  UNL1        0.0161
      7 C         140.9707  143.3139  161.8071 C.ar    1  UNL1        0.0182
      8 C         141.2399  142.8811  163.2179 C.ar    1  UNL1        0.0147
      9 C         142.3608  143.1893  164.1657 C.ar    1  UNL1        0.0032
     10 C         142.3609  142.5988  165.5446 C.ar    1  UNL1        0.0509
     11 C         141.2400  141.7000  165.9757 C.ar    1  UNL1        0.0042
     12 C         140.1191  141.3918  165.0278 C.ar    1  UNL1       -0.0058
     13 C         140.1190  141.9823  163.6490 C.ar    1  UNL1        0.0556
     14 C         138.9982  140.4930  165.4589 C.3     1  UNL1        0.0342
     15 C         138.9983  139.9025  166.8377 C.3     1  UNL1        0.0524
     16 C         140.1193  140.2108  167.7855 C.ar    1  UNL1        0.0803
     17 N         140.3884  139.7780  169.1963 N.ar    1  UNL1       -0.1736
     18 N         141.6757  140.4093  169.6372 N.ar    1  UNL1       -0.2477
     19 C         142.3230  140.2463  170.9806 C.3     1  UNL1        0.1537
     20 C         142.2021  141.2322  168.4988 C.ar    1  UNL1        0.0963
     21 C         141.2401  141.1095  167.3545 C.ar    1  UNL1        0.0339
     22 C         143.5920  143.0791  166.2545 C.2     1  UNL1        0.2458
     23 O         143.9921  142.7328  167.6581 O.2     1  UNL1       -0.2701
     24 N         144.3528  143.9664  165.3143 N.am    1  UNL1       -0.2969
     25 C         143.5919  144.0346  164.0234 C.3     1  UNL1        0.1168
     26 H         145.2023  144.4238  165.5101 H       1  UNL1        0.1501
     27 N         141.9656  145.3446  158.5458 N.pl3   1  UNL1       -0.2825
     28 H         142.8605  145.6720  158.7935 H       1  UNL1        0.1551
     29 C         141.3630  145.7332  157.2284 C.ar    1  UNL1        0.2207
     30 N         140.0948  146.5333  157.1906 N.ar    1  UNL1       -0.2120
     31 C         139.4921  146.9218  155.8730 C.ar    1  UNL1        0.1034
     32 C         140.1577  146.5103  154.5933 C.ar    1  UNL1        0.0414
     33 C         141.4259  145.7102  154.6311 C.ar    1  UNL1        0.1034
     34 N         142.0286  145.3216  155.9486 N.ar    1  UNL1       -0.2120
     35 C         137.8910  141.0552  162.4994 C.3     1  UNL1        0.1059
     36 C         138.2799  138.4867  162.4657 C.3     1  UNL1        0.0020
     37 C         137.8391  139.7430  161.7748 C.3     1  UNL1        0.0226
     38 C         137.3463  139.6869  160.3591 C.3     1  UNL1        0.0020
@<TRIPOS>BOND
     1    36    37    1
     2    37    38    1
     3    37    35    1
     4    35     1    1
     5     1     2   ar
     6     2     3   ar
     7     3     4   ar
     8     4     5   ar
     9     5    27    1
    10    27    29    1
    11    29    30   ar
    12    30    31   ar
    13    31    32   ar
    14    32    33   ar
    15    33    34   ar
    16     5     6   ar
    17     6     7   ar
    18     7     8   ar
    19     8     9   ar
    20     9    10   ar
    21    10    11   ar
    22    11    12   ar
    23    12    13   ar
    24    12    14    1
    25    14    15    1
    26    15    16    1
    27    16    17   ar
    28    17    18   ar
    29    18    19    1
    30    18    20   ar
    31    20    21   ar
    32    10    22    1
    33    22    23    2
    34    22    24   am
    35    24    25    1
    36    13     1   ar
    37    21    16   ar
    38     7     2   ar
    39    13     8   ar
    40    34    29   ar
    41    25     9    1
    42    21    11    1
    43    27    28    1
    44    24    26    1
@<TRIPOS>MOLECULE
*****
 38 44 0 0 0
SMALL
GASTEIGER

@<TRIPOS>ATOM
      1 N         142.9505  140.0201  162.3801 N.ar    1  UNL1       -0.3274
      2 C         143.0286  139.8331  163.8664 C.ar    1  UNL1        0.0599
      3 C         143.5749  138.7201  164.7106 C.ar    1  UNL1        0.0185
      4 C         143.5130  138.8136  166.2063 C.ar    1  UNL1        0.0162
      5 C         142.9048  140.0200  166.8579 C.ar    1  UNL1        0.0506
      6 C         142.3585  141.1330  166.0137 C.ar    1  UNL1        0.0161
      7 C         142.4204  141.0395  164.5179 C.ar    1  UNL1        0.0182
      8 C         141.9665  141.9722  163.4343 C.ar    1  UNL1        0.0147
      9 C         141.2972  143.3137  163.4800 C.ar    1  UNL1        0.0032
     10 C         140.9555  144.0253  162.2044 C.ar    1  UNL1        0.0509
     11 C         141.2831  143.3952  160.8832 C.ar    1  UNL1        0.0042
     12 C         141.9524  142.0536  160.8375 C.ar    1  UNL1       -0.0058
     13 C         142.2941  141.3421  162.1131 C.ar    1  UNL1        0.0556
     14 C         142.2801  141.4236  159.5163 C.3     1  UNL1        0.0342
     15 C         141.9384  142.1351  158.2408 C.3     1  UNL1        0.0524
     16 C         141.2690  143.4767  158.2865 C.ar    1  UNL1        0.0803
     17 N         140.8151  144.4093  157.2029 N.ar    1  UNL1       -0.1736
     18 N         140.2069  145.6158  157.8545 N.ar    1  UNL1       -0.2477
     19 C         139.6232  146.8012  157.1444 C.3     1  UNL1        0.1537
     20 C         140.2850  145.4288  159.3407 C.ar    1  UNL1        0.0963
     21 C         140.9414  144.1068  159.6077 C.ar    1  UNL1        0.0339
     22 C         140.3024  145.3279  162.5609 C.2     1  UNL1        0.2458
     23 O         139.7995  146.3563  161.5916 O.2     1  UNL1       -0.2701
     24 N         140.2405  145.4213  164.0567 N.am    1  UNL1       -0.2969
     25 C         140.8553  144.1766  164.6248 C.3     1  UNL1        0.1168
     26 H         139.8627  146.1684  164.5747 H       1  UNL1        0.1501
     27 N         142.8429  140.1135  168.3538 N.pl3   1  UNL1       -0.2825
     28 H         143.4458  139.5656  168.9065 H       1  UNL1        0.1551
     29 C         141.8625  141.0417  169.0073 C.ar    1  UNL1        0.2207
     30 N         140.4919  140.5513  169.3690 N.ar    1  UNL1       -0.2120
     31 C         139.5114  141.4796  170.0226 C.ar    1  UNL1        0.1034
     32 C         139.9017  142.8982  170.3144 C.ar    1  UNL1        0.0414
     33 C         141.2723  143.3886  169.9528 C.ar    1  UNL1        0.1034
     34 N         142.2528  142.4604  169.2992 N.ar    1  UNL1       -0.2120
     35 C         143.4425  139.0545  161.3430 C.3     1  UNL1        0.1059
     36 C         141.1168  137.9013  161.2377 C.3     1  UNL1        0.0020
     37 C         142.4755  138.1417  160.6492 C.3     1  UNL1        0.0226
     38 C         142.8669  137.4692  159.3668 C.3     1  UNL1        0.0020
@<TRIPOS>BOND
     1    36    37    1
     2    37    38    1
     3    37    35    1
     4    35     1    1
     5     1     2   ar
     6     2     3   ar
     7     3     4   ar
     8     4     5   ar
     9     5    27    1
    10    27    29    1
    11    29    30   ar
    12    30    31   ar
    13    31    32   ar
    14    32    33   ar
    15    33    34   ar
    16     5     6   ar
    17     6     7   ar
    18     7     8   ar
    19     8     9   ar
    20     9    10   ar
    21    10    11   ar
    22    11    12   ar
    23    12    13   ar
    24    12    14    1
    25    14    15    1
    26    15    16    1
    27    16    17   ar
    28    17    18   ar
    29    18    19    1
    30    18    20   ar
    31    20    21   ar
    32    10    22    1
    33    22    23    2
    34    22    24   am
    35    24    25    1
    36    13     1   ar
    37    21    16   ar
    38     7     2   ar
    39    13     8   ar
    40    34    29   ar
    41    25     9    1
    42    21    11    1
    43    27    28    1
    44    24    26    1
@<TRIPOS>MOLECULE
*****
 38 44 0 0 0
SMALL
GASTEIGER

@<TRIPOS>ATOM
      1 N         143.3410  141.6288  161.2252 N.ar    1  UNL1       -0.3274
      2 C         142.9706  142.6487  160.1896 C.ar    1  UNL1        0.0599
      3 C         143.3926  142.8279  158.7614 C.ar    1  UNL1        0.0185
      4 C         142.8429  143.9663  157.9541 C.ar    1  UNL1        0.0162
      5 C         141.8712  144.9256  158.5750 C.ar    1  UNL1        0.0506
      6 C         141.4491  144.7464  160.0032 C.ar    1  UNL1        0.0161
      7 C         141.9988  143.6080  160.8105 C.ar    1  UNL1        0.0182
      8 C         141.7686  143.1808  162.2298 C.ar    1  UNL1        0.0147
      9 C         140.9109  143.7477  163.3220 C.ar    1  UNL1        0.0032
     10 C         140.8826  143.0914  164.6705 C.ar    1  UNL1        0.0509
     11 C         141.7121  141.8682  164.9269 C.ar    1  UNL1        0.0042
     12 C         142.5698  141.3013  163.8347 C.ar    1  UNL1       -0.0058
     13 C         142.5981  141.9576  162.4862 C.ar    1  UNL1        0.0556
     14 C         143.3993  140.0781  164.0910 C.3     1  UNL1        0.0342
     15 C         143.3710  139.4218  165.4394 C.3     1  UNL1        0.0524
     16 C         142.5133  139.9887  166.5316 C.ar    1  UNL1        0.0803
     17 N         142.2831  139.5615  167.9510 N.ar    1  UNL1       -0.1736
     18 N         141.3114  140.5208  168.5719 N.ar    1  UNL1       -0.2477
     19 C         140.7998  140.4691  169.9811 C.3     1  UNL1        0.1537
     20 C         140.9410  141.5407  167.5362 C.ar    1  UNL1        0.0963
     21 C         141.6838  141.2118  166.2754 C.ar    1  UNL1        0.0339
     22 C         139.9474  143.8715  165.5463 C.2     1  UNL1        0.2458
     23 O         139.6195  143.5667  166.9779 O.2     1  UNL1       -0.2701
     24 N         139.3977  145.0100  164.7389 N.am    1  UNL1       -0.2969
     25 C         139.9931  144.9335  163.3643 C.3     1  UNL1        0.1168
     26 H         138.7583  145.6883  165.0557 H       1  UNL1        0.1501
     27 N         141.3214  146.0641  157.7677 N.pl3   1  UNL1       -0.2825
     28 H         141.7225  146.9600  157.8434 H       1  UNL1        0.1551
     29 C         140.1607  145.8375  156.8451 C.ar    1  UNL1        0.2207
     30 N         139.5697  144.4659  156.7060 N.ar    1  UNL1       -0.2120
     31 C         138.4089  144.2394  155.7833 C.ar    1  UNL1        0.1034
     32 C         137.8392  145.3845  154.9997 C.ar    1  UNL1        0.0414
     33 C         138.4301  146.7561  155.1388 C.ar    1  UNL1        0.1034
     34 N         139.5908  146.9827  156.0614 N.ar    1  UNL1       -0.2120
     35 C         144.2879  140.4814  161.0335 C.3     1  UNL1        0.1059
     36 C         143.9514  137.9191  161.3003 C.3     1  UNL1        0.0020
     37 C         143.7840  139.1746  160.4968 C.3     1  UNL1        0.0226
     38 C         143.1125  139.1231  159.1564 C.3     1  UNL1        0.0020
@<TRIPOS>BOND
     1    36    37    1
     2    37    38    1
     3    37    35    1
     4    35     1    1
     5     1     2   ar
     6     2     3   ar
     7     3     4   ar
     8     4     5   ar
     9     5    27    1
    10    27    29    1
    11    29    30   ar
    12    30    31   ar
    13    31    32   ar
    14    32    33   ar
    15    33    34   ar
    16     5     6   ar
    17     6     7   ar
    18     7     8   ar
    19     8     9   ar
    20     9    10   ar
    21    10    11   ar
    22    11    12   ar
    23    12    13   ar
    24    12    14    1
    25    14    15    1
    26    15    16    1
    27    16    17   ar
    28    17    18   ar
    29    18    19    1
    30    18    20   ar
    31    20    21   ar
    32    10    22    1
    33    22    23    2
    34    22    24   am
    35    24    25    1
    36    13     1   ar
    37    21    16   ar
    38     7     2   ar
    39    13     8   ar
    40    34    29   ar
    41    25     9    1
    42    21    11    1
    43    27    28    1
    44    24    26    1
@<TRIPOS>MOLECULE
*****
 38 44 0 0 0
SMALL
GASTEIGER

@<TRIPOS>ATOM
      1 N         140.3583  139.3562  162.1361 N.ar    1  UNL1       -0.3274
      2 C         140.0510  139.1940  163.5953 C.ar    1  UNL1        0.0599
      3 C         140.0419  137.9912  164.4915 C.ar    1  UNL1        0.0185
      4 C         139.6864  138.1388  165.9412 C.ar    1  UNL1        0.0162
      5 C         139.3399  139.4892  166.4947 C.ar    1  UNL1        0.0506
      6 C         139.3490  140.6920  165.5986 C.ar    1  UNL1        0.0161
      7 C         139.7045  140.5444  164.1488 C.ar    1  UNL1        0.0182
      8 C         139.7977  141.5411  163.0317 C.ar    1  UNL1        0.0147
      9 C         139.5668  143.0225  162.9865 C.ar    1  UNL1        0.0032
     10 C         139.7399  143.7696  161.6973 C.ar    1  UNL1        0.0509
     11 C         140.1440  143.0352  160.4534 C.ar    1  UNL1        0.0042
     12 C         140.3749  141.5538  160.4986 C.ar    1  UNL1       -0.0058
     13 C         140.2017  140.8067  161.7878 C.ar    1  UNL1        0.0556
     14 C         140.7789  140.8194  159.2546 C.3     1  UNL1        0.0342
     15 C         140.9520  141.5664  157.9655 C.3     1  UNL1        0.0524
     16 C         140.7211  143.0479  157.9203 C.ar    1  UNL1        0.0803
     17 N         140.8143  144.0445  156.8032 N.ar    1  UNL1       -0.1736
     18 N         140.4678  145.3949  157.3567 N.ar    1  UNL1       -0.2477
     19 C         140.4345  146.6816  156.5863 C.3     1  UNL1        0.1537
     20 C         140.1605  145.2328  158.8159 C.ar    1  UNL1        0.0963
     21 C         140.3171  143.7823  159.1642 C.ar    1  UNL1        0.0339
     22 C         139.4448  145.2172  161.9572 C.2     1  UNL1        0.2458
     23 O         139.4962  146.3230  160.9450 O.2     1  UNL1       -0.2701
     24 N         139.0892  145.3647  163.4070 N.am    1  UNL1       -0.2969
     25 C         139.1646  144.0084  164.0431 C.3     1  UNL1        0.1168
     26 H         138.8486  146.2044  163.8612 H       1  UNL1        0.1501
     27 N         138.9844  139.6368  167.9446 N.pl3   1  UNL1       -0.2825
     28 H         138.0622  139.4674  168.2450 H       1  UNL1        0.1551
     29 C         140.0337  140.0424  168.9366 C.ar    1  UNL1        0.2207
     30 N         141.4851  139.9711  168.5646 N.ar    1  UNL1       -0.2120
     31 C         142.5345  140.3768  169.5567 C.ar    1  UNL1        0.1034
     32 C         142.1325  140.8538  170.9208 C.ar    1  UNL1        0.0414
     33 C         140.6811  140.9252  171.2928 C.ar    1  UNL1        0.1034
     34 N         139.6318  140.5195  170.3008 N.ar    1  UNL1       -0.2120
     35 C         140.7528  138.2601  161.1911 C.3     1  UNL1        0.1059
     36 C         143.1892  138.0169  162.0599 C.3     1  UNL1        0.0020
     37 C         142.2032  137.9808  160.9301 C.3     1  UNL1        0.0226
     38 C         142.6678  137.6654  159.5391 C.3     1  UNL1        0.0020
@<TRIPOS>BOND
     1    36    37    1
     2    37    38    1
     3    37    35    1
     4    35     1    1
     5     1     2   ar
     6     2     3   ar
     7     3     4   ar
     8     4     5   ar
     9     5    27    1
    10    27    29    1
    11    29    30   ar
    12    30    31   ar
    13    31    32   ar
    14    32    33   ar
    15    33    34   ar
    16     5     6   ar
    17     6     7   ar
    18     7     8   ar
    19     8     9   ar
    20     9    10   ar
    21    10    11   ar
    22    11    12   ar
    23    12    13   ar
    24    12    14    1
    25    14    15    1
    26    15    16    1
    27    16    17   ar
    28    17    18   ar
    29    18    19    1
    30    18    20   ar
    31    20    21   ar
    32    10    22    1
    33    22    23    2
    34    22    24   am
    35    24    25    1
    36    13     1   ar
    37    21    16   ar
    38     7     2   ar
    39    13     8   ar
    40    34    29   ar
    41    25     9    1
    42    21    11    1
    43    27    28    1
    44    24    26    1
@<TRIPOS>MOLECULE
*****
 38 44 0 0 0
SMALL
GASTEIGER

@<TRIPOS>ATOM
      1 N         139.8246  143.1261  159.6842 N.ar    1  UNL1       -0.3274
      2 C         138.9273  142.5741  158.6164 C.ar    1  UNL1        0.0599
      3 C         138.4820  143.1266  157.2950 C.ar    1  UNL1        0.0185
      4 C         137.5609  142.3287  156.4205 C.ar    1  UNL1        0.0162
      5 C         137.0851  140.9782  156.8674 C.ar    1  UNL1        0.0506
      6 C         137.5304  140.4256  158.1888 C.ar    1  UNL1        0.0161
      7 C         138.4515  141.2235  159.0634 C.ar    1  UNL1        0.0182
      8 C         139.0548  140.9409  160.4073 C.ar    1  UNL1        0.0147
      9 C         138.9411  139.7648  161.3313 C.ar    1  UNL1        0.0032
     10 C         139.6760  139.7645  162.6390 C.ar    1  UNL1        0.0509
     11 C         140.5246  140.9404  163.0227 C.ar    1  UNL1        0.0042
     12 C         140.6383  142.1165  162.0987 C.ar    1  UNL1       -0.0058
     13 C         139.9035  142.1168  160.7910 C.ar    1  UNL1        0.0556
     14 C         141.4870  143.2923  162.4824 C.3     1  UNL1        0.0342
     15 C         142.2218  143.2920  163.7900 C.3     1  UNL1        0.0524
     16 C         142.1080  142.1159  164.7139 C.ar    1  UNL1        0.0803
     17 N         142.7113  141.8333  166.0579 N.ar    1  UNL1       -0.1736
     18 N         142.2356  140.4828  166.5048 N.ar    1  UNL1       -0.2477
     19 C         142.5942  139.8036  167.7933 C.3     1  UNL1        0.1537
     20 C         141.3382  139.9308  165.4371 C.ar    1  UNL1        0.0963
     21 C         141.2595  140.9401  164.3303 C.ar    1  UNL1        0.0339
     22 C         139.3746  138.4729  163.3398 C.2     1  UNL1        0.2458
     23 O         139.9018  138.0530  164.6798 O.2     1  UNL1       -0.2701
     24 N         138.4535  137.6750  162.4652 N.am    1  UNL1       -0.2969
     25 C         138.1855  138.4734  161.2239 C.3     1  UNL1        0.1168
     26 H         138.0888  136.7837  162.6699 H       1  UNL1        0.1501
     27 N         136.1640  140.1802  155.9928 N.pl3   1  UNL1       -0.2825
     28 H         136.5342  139.5881  155.2989 H       1  UNL1        0.1551
     29 C         134.6788  140.2846  156.1754 C.ar    1  UNL1        0.2207
     30 N         133.8817  141.2220  155.3176 N.ar    1  UNL1       -0.2120
     31 C         132.3965  141.3263  155.5002 C.ar    1  UNL1        0.1034
     32 C         131.7084  140.4933  156.5407 C.ar    1  UNL1        0.0414
     33 C         132.5056  139.5559  157.3986 C.ar    1  UNL1        0.1034
     34 N         133.9907  139.4515  157.2159 N.ar    1  UNL1       -0.2120
     35 C         140.5209  144.4543  159.6509 C.3     1  UNL1        0.1059
     36 C         141.8227  145.8517  157.8895 C.3     1  UNL1        0.0020
     37 C         141.7260  144.6478  158.7791 C.3     1  UNL1        0.0226
     38 C         142.8345  143.6373  158.7967 C.3     1  UNL1        0.0020
@<TRIPOS>BOND
     1    36    37    1
     2    37    38    1
     3    37    35    1
     4    35     1    1
     5     1     2   ar
     6     2     3   ar
     7     3     4   ar
     8     4     5   ar
     9     5    27    1
    10    27    29    1
    11    29    30   ar
    12    30    31   ar
    13    31    32   ar
    14    32    33   ar
    15    33    34   ar
    16     5     6   ar
    17     6     7   ar
    18     7     8   ar
    19     8     9   ar
    20     9    10   ar
    21    10    11   ar
    22    11    12   ar
    23    12    13   ar
    24    12    14    1
    25    14    15    1
    26    15    16    1
    27    16    17   ar
    28    17    18   ar
    29    18    19    1
    30    18    20   ar
    31    20    21   ar
    32    10    22    1
    33    22    23    2
    34    22    24   am
    35    24    25    1
    36    13     1   ar
    37    21    16   ar
    38     7     2   ar
    39    13     8   ar
    40    34    29   ar
    41    25     9    1
    42    21    11    1
    43    27    28    1
    44    24    26    1
@<TRIPOS>MOLECULE
*****
 38 44 0 0 0
SMALL
GASTEIGER

@<TRIPOS>ATOM
      1 N         139.9843  140.8784  162.2548 N.ar    1  UNL1       -0.3274
      2 C         140.7301  141.5113  161.1176 C.ar    1  UNL1        0.0599
      3 C         140.4861  141.5183  159.6376 C.ar    1  UNL1        0.0185
      4 C         141.4234  142.2539  158.7265 C.ar    1  UNL1        0.0162
      5 C         142.6048  142.9825  159.2953 C.ar    1  UNL1        0.0506
      6 C         142.8488  142.9755  160.7753 C.ar    1  UNL1        0.0161
      7 C         141.9114  142.2399  161.6864 C.ar    1  UNL1        0.0182
      8 C         141.8957  142.0573  163.1752 C.ar    1  UNL1        0.0147
      9 C         142.8121  142.5485  164.2563 C.ar    1  UNL1        0.0032
     10 C         142.5375  142.1983  165.6888 C.ar    1  UNL1        0.0509
     11 C         141.3465  141.3568  166.0401 C.ar    1  UNL1        0.0042
     12 C         140.4301  140.8656  164.9590 C.ar    1  UNL1       -0.0058
     13 C         140.7047  141.2159  163.5265 C.ar    1  UNL1        0.0556
     14 C         139.2391  140.0242  165.3103 C.3     1  UNL1        0.0342
     15 C         138.9645  139.6740  166.7426 C.3     1  UNL1        0.0524
     16 C         139.8808  140.1652  167.8238 C.ar    1  UNL1        0.0803
     17 N         139.8652  139.9826  169.3126 N.ar    1  UNL1       -0.1736
     18 N         141.0465  140.7112  169.8814 N.ar    1  UNL1       -0.2477
     19 C         141.4170  140.7925  171.3327 C.3     1  UNL1        0.1537
     20 C         141.7923  141.3441  168.7442 C.ar    1  UNL1        0.0963
     21 C         141.0718  141.0066  167.4726 C.ar    1  UNL1        0.0339
     22 C         143.6099  142.8218  166.5323 C.2     1  UNL1        0.2458
     23 O         143.7246  142.7265  168.0248 O.2     1  UNL1       -0.2701
     24 N         144.5472  143.5575  165.6210 N.am    1  UNL1       -0.2969
     25 C         144.0542  143.3885  164.2145 C.3     1  UNL1        0.1168
     26 H         145.3458  144.0625  165.8976 H       1  UNL1        0.1501
     27 N         143.5422  143.7181  158.3840 N.pl3   1  UNL1       -0.2825
     28 H         143.7335  144.6712  158.5399 H       1  UNL1        0.1551
     29 C         144.1880  143.0016  157.2354 C.ar    1  UNL1        0.2207
     30 N         143.5791  143.0769  155.8666 N.ar    1  UNL1       -0.2120
     31 C         144.2250  142.3604  154.7179 C.ar    1  UNL1        0.1034
     32 C         145.4798  141.5685  154.9380 C.ar    1  UNL1        0.0414
     33 C         146.0887  141.4932  156.3068 C.ar    1  UNL1        0.1034
     34 N         145.4429  142.2097  157.4555 N.ar    1  UNL1       -0.2120
     35 C         138.7371  140.0530  162.1404 C.3     1  UNL1        0.1059
     36 C         139.1730  138.1258  160.4535 C.3     1  UNL1        0.0020
     37 C         138.8330  138.5866  161.8399 C.3     1  UNL1        0.0226
     38 C         138.5890  137.5809  162.9258 C.3     1  UNL1        0.0020
@<TRIPOS>BOND
     1    36    37    1
     2    37    38    1
     3    37    35    1
     4    35     1    1
     5     1     2   ar
     6     2     3   ar
     7     3     4   ar
     8     4     5   ar
     9     5    27    1
    10    27    29    1
    11    29    30   ar
    12    30    31   ar
    13    31    32   ar
    14    32    33   ar
    15    33    34   ar
    16     5     6   ar
    17     6     7   ar
    18     7     8   ar
    19     8     9   ar
    20     9    10   ar
    21    10    11   ar
    22    11    12   ar
    23    12    13   ar
    24    12    14    1
    25    14    15    1
    26    15    16    1
    27    16    17   ar
    28    17    18   ar
    29    18    19    1
    30    18    20   ar
    31    20    21   ar
    32    10    22    1
    33    22    23    2
    34    22    24   am
    35    24    25    1
    36    13     1   ar
    37    21    16   ar
    38     7     2   ar
    39    13     8   ar
    40    34    29   ar
    41    25     9    1
    42    21    11    1
    43    27    28    1
    44    24    26    1
@<TRIPOS>MOLECULE
*****
 38 44 0 0 0
SMALL
GASTEIGER

@<TRIPOS>ATOM
      1 N         143.0821  143.6246  157.9726 N.ar    1  UNL1       -0.3274
      2 C         142.1803  144.4378  157.0919 C.ar    1  UNL1        0.0599
      3 C         142.1424  144.6377  155.6058 C.ar    1  UNL1        0.0185
      4 C         141.1022  145.5293  154.9953 C.ar    1  UNL1        0.0162
      5 C         140.0998  146.2211  155.8709 C.ar    1  UNL1        0.0506
      6 C         140.1377  146.0212  157.3570 C.ar    1  UNL1        0.0161
      7 C         141.1780  145.1295  157.9675 C.ar    1  UNL1        0.0182
      8 C         141.4603  144.7439  159.3893 C.ar    1  UNL1        0.0147
      9 C         140.7977  145.1195  160.6816 C.ar    1  UNL1        0.0032
     10 C         141.3120  144.5651  161.9770 C.ar    1  UNL1        0.0509
     11 C         142.4889  143.6350  161.9802 C.ar    1  UNL1        0.0042
     12 C         143.1514  143.2593  160.6879 C.ar    1  UNL1       -0.0058
     13 C         142.6371  143.8138  159.3925 C.ar    1  UNL1        0.0556
     14 C         144.3282  142.3292  160.6911 C.3     1  UNL1        0.0342
     15 C         144.8424  141.7748  161.9864 C.3     1  UNL1        0.0524
     16 C         144.1799  142.1504  163.2787 C.ar    1  UNL1        0.0803
     17 N         144.4622  141.7648  164.7005 N.ar    1  UNL1       -0.1736
     18 N         143.4599  142.4566  165.5761 N.ar    1  UNL1       -0.2477
     19 C         143.3743  142.3533  167.0702 C.3     1  UNL1        0.1537
     20 C         142.5581  143.2697  164.6954 C.ar    1  UNL1        0.0963
     21 C         143.0032  143.0805  163.2756 C.ar    1  UNL1        0.0339
     22 C         140.4610  145.1107  163.0852 C.2     1  UNL1        0.2458
     23 O         140.6219  144.8163  164.5472 O.2     1  UNL1       -0.2701
     24 N         139.4207  146.0024  162.4747 N.am    1  UNL1       -0.2969
     25 C         139.6288  146.0079  160.9892 C.3     1  UNL1        0.1168
     26 H         138.7237  146.4972  162.9632 H       1  UNL1        0.1501
     27 N         139.0595  147.1128  155.2603 N.pl3   1  UNL1       -0.2825
     28 H         138.2000  146.7352  154.9640 H       1  UNL1        0.1551
     29 C         139.3289  148.5798  155.1013 C.ar    1  UNL1        0.2207
     30 N         138.5499  149.5771  155.9066 N.ar    1  UNL1       -0.2120
     31 C         138.8193  151.0441  155.7475 C.ar    1  UNL1        0.1034
     32 C         139.8677  151.5138  154.7831 C.ar    1  UNL1        0.0414
     33 C         140.6467  150.5166  153.9777 C.ar    1  UNL1        0.1034
     34 N         140.3773  149.0496  154.1368 N.ar    1  UNL1       -0.2120
     35 C         144.2277  142.7719  157.5138 C.3     1  UNL1        0.1059
     36 C         142.6550  140.7096  157.3616 C.3     1  UNL1        0.0020
     37 C         143.9867  141.3497  157.1030 C.3     1  UNL1        0.0226
     38 C         145.0774  140.5673  156.4333 C.3     1  UNL1        0.0020
@<TRIPOS>BOND
     1    36    37    1
     2    37    38    1
     3    37    35    1
     4    35     1    1
     5     1     2   ar
     6     2     3   ar
     7     3     4   ar
     8     4     5   ar
     9     5    27    1
    10    27    29    1
    11    29    30   ar
    12    30    31   ar
    13    31    32   ar
    14    32    33   ar
    15    33    34   ar
    16     5     6   ar
    17     6     7   ar
    18     7     8   ar
    19     8     9   ar
    20     9    10   ar
    21    10    11   ar
    22    11    12   ar
    23    12    13   ar
    24    12    14    1
    25    14    15    1
    26    15    16    1
    27    16    17   ar
    28    17    18   ar
    29    18    19    1
    30    18    20   ar
    31    20    21   ar
    32    10    22    1
    33    22    23    2
    34    22    24   am
    35    24    25    1
    36    13     1   ar
    37    21    16   ar
    38     7     2   ar
    39    13     8   ar
    40    34    29   ar
    41    25     9    1
    42    21    11    1
    43    27    28    1
    44    24    26    1
@<TRIPOS>MOLECULE
*****
 38 44 0 0 0
SMALL
GASTEIGER

@<TRIPOS>ATOM
      1 N         141.9101  142.4030  162.2800 N.ar    1  UNL1       -0.3274
      2 C         140.9653  141.9825  161.1935 C.ar    1  UNL1        0.0599
      3 C         140.9670  142.2235  159.7131 C.ar    1  UNL1        0.0185
      4 C         139.8654  141.6661  158.8612 C.ar    1  UNL1        0.0162
      5 C         138.7621  140.8677  159.4898 C.ar    1  UNL1        0.0506
      6 C         138.7603  140.6267  160.9703 C.ar    1  UNL1        0.0161
      7 C         139.8619  141.1841  161.8221 C.ar    1  UNL1        0.0182
      8 C         140.1249  141.1111  163.2971 C.ar    1  UNL1        0.0147
      9 C         139.3752  140.4561  164.4191 C.ar    1  UNL1        0.0032
     10 C         139.8914  140.5543  165.8241 C.ar    1  UNL1        0.0509
     11 C         141.1573  141.3076  166.1071 C.ar    1  UNL1        0.0042
     12 C         141.9069  141.9627  164.9851 C.ar    1  UNL1       -0.0058
     13 C         141.3907  141.8645  163.5801 C.ar    1  UNL1        0.0556
     14 C         143.1728  142.7160  165.2681 C.3     1  UNL1        0.0342
     15 C         143.6889  142.8142  166.6730 C.3     1  UNL1        0.0524
     16 C         142.9393  142.1592  167.7950 C.ar    1  UNL1        0.0803
     17 N         143.2022  142.0862  169.2699 N.ar    1  UNL1       -0.1736
     18 N         142.0989  141.2878  169.8985 N.ar    1  UNL1       -0.2477
     19 C         141.9641  140.9663  171.3575 C.3     1  UNL1        0.1537
     20 C         141.1540  140.8673  168.8120 C.ar    1  UNL1        0.0963
     21 C         141.6734  141.4059  167.5120 C.ar    1  UNL1        0.0339
     22 C         138.9441  139.8113  166.7190 C.2     1  UNL1        0.2458
     23 O         139.0754  139.6535  168.2048 O.2     1  UNL1       -0.2701
     24 N         137.8425  139.2539  165.8670 N.am    1  UNL1       -0.2969
     25 C         138.1089  139.6523  164.4457 C.3     1  UNL1        0.1168
     26 H         137.0787  138.7202  166.1849 H       1  UNL1        0.1501
     27 N         137.6605  140.3102  158.6378 N.pl3   1  UNL1       -0.2825
     28 H         137.0153  139.6734  159.0219 H       1  UNL1        0.1551
     29 C         137.5418  140.7230  157.2007 C.ar    1  UNL1        0.2207
     30 N         136.9447  142.0534  156.8493 N.ar    1  UNL1       -0.2120
     31 C         136.8260  142.4662  155.4121 C.ar    1  UNL1        0.1034
     32 C         137.3045  141.5486  154.3263 C.ar    1  UNL1        0.0414
     33 C         137.9016  140.2182  154.6776 C.ar    1  UNL1        0.1034
     34 N         138.0203  139.8054  156.1148 N.ar    1  UNL1       -0.2120
     35 C         143.1557  143.2188  162.0983 C.3     1  UNL1        0.1059
     36 C         144.7190  142.6122  160.1138 C.3     1  UNL1        0.0020
     37 C         144.4064  142.5729  161.5804 C.3     1  UNL1        0.0226
     38 C         145.3448  141.8875  162.5290 C.3     1  UNL1        0.0020
@<TRIPOS>BOND
     1    36    37    1
     2    37    38    1
     3    37    35    1
     4    35     1    1
     5     1     2   ar
     6     2     3   ar
     7     3     4   ar
     8     4     5   ar
     9     5    27    1
    10    27    29    1
    11    29    30   ar
    12    30    31   ar
    13    31    32   ar
    14    32    33   ar
    15    33    34   ar
    16     5     6   ar
    17     6     7   ar
    18     7     8   ar
    19     8     9   ar
    20     9    10   ar
    21    10    11   ar
    22    11    12   ar
    23    12    13   ar
    24    12    14    1
    25    14    15    1
    26    15    16    1
    27    16    17   ar
    28    17    18   ar
    29    18    19    1
    30    18    20   ar
    31    20    21   ar
    32    10    22    1
    33    22    23    2
    34    22    24   am
    35    24    25    1
    36    13     1   ar
    37    21    16   ar
    38     7     2   ar
    39    13     8   ar
    40    34    29   ar
    41    25     9    1
    42    21    11    1
    43    27    28    1
    44    24    26    1
