@<TRIPOS>MOLECULE
*****
 44 50 0 0 0
SMALL
GASTEIGER

@<TRIPOS>ATOM
      1 C         137.9216  140.3032  161.5497 C.3     1  UNL1        0.0700
      2 C         137.5377  140.4977  162.9866 C.3     1  UNL1        0.0193
      3 C         137.5059  141.8774  163.5742 C.3     1  UNL1        0.0286
      4 C         137.8581  143.0627  162.7249 C.3     1  UNL1        0.0932
      5 C         138.2420  142.8681  161.2880 C.3     1  UNL1        0.0286
      6 C         138.2738  141.4883  160.7004 C.3     1  UNL1        0.0193
      7 O         137.8898  142.3260  162.3586 O.3     1  UNL1       -0.3572
      8 C         137.9185  141.0784  161.8272 C.3     1  UNL1        0.1562
      9 N         137.9533  138.9234  160.9621 N.3     1  UNL1       -0.2926
     10 H         137.4608  138.3139  161.6150 H       1  UNL1        0.1236
     11 C         139.2679  138.2656  160.6632 C.3     1  UNL1        0.1152
     12 O         145.9557  141.6144  162.8560 O.2     1  UNL1       -0.2707
     13 C         144.8625  140.6162  163.0974 C.2     1  UNL1        0.2718
     14 C         144.9052  139.7359  164.3112 C.3     1  UNL1        0.2898
     15 O         143.8120  138.7377  164.5527 O.3     1  UNL1       -0.4628
     16 C         142.6759  138.6197  163.5803 C.ar    1  UNL1        0.1708
     17 C         141.5827  137.6214  163.8218 C.ar    1  UNL1        0.0411
     18 C         140.4467  137.5034  162.8494 C.ar    1  UNL1        0.0193
     19 C         140.4039  138.3836  161.6355 C.ar    1  UNL1        0.0765
     20 N         141.4972  139.3819  161.3941 N.ar    1  UNL1       -0.2304
     21 C         142.6332  139.4999  162.3665 C.ar    1  UNL1        0.1682
     22 N         143.7265  140.4981  162.1251 N.am    1  UNL1       -0.2639
     23 H         143.6984  141.0758  161.3284 H       1  UNL1        0.1565
     24 C         137.8264  144.4424  163.3125 C.3     1  UNL1        0.0320
     25 C         138.9315  144.8971  164.2192 C.3     1  UNL1        0.0327
     26 C         140.3435  144.4652  163.9554 C.ar    1  UNL1        0.0261
     27 C         141.0139  144.8392  162.6667 C.ar    1  UNL1        0.1566
     28 F         140.2722  145.6450  161.6417 F       1  UNL1       -0.2028
     29 C         142.4260  144.4073  162.4029 C.ar    1  UNL1        0.1281
     30 N         143.1677  143.6015  163.4279 N.ar    1  UNL1       -0.2400
     31 C         142.4973  143.2275  164.7166 C.ar    1  UNL1        0.0990
     32 C         143.2390  142.4217  165.7415 C.ar    1  UNL1        0.0254
     33 C         142.5686  142.0477  167.0303 C.ar    1  UNL1        0.0593
     34 C         141.1566  142.4796  167.2940 C.ar    1  UNL1        0.2249
     35 N         140.4149  143.2854  166.2690 N.ar    1  UNL1       -0.2104
     36 C         141.0852  143.6594  164.9804 C.ar    1  UNL1        0.1002
     37 O         140.4863  142.1056  168.5827 O.3     1  UNL1       -0.4602
     38 C         139.7434  140.8071  168.6924 C.3     1  UNL1        0.2074
     39 C         139.4009  140.0320  167.4546 C.3     1  UNL1        0.0493
     40 C         139.5645  139.7972  165.9822 C.3     1  UNL1        0.0097
     41 C         138.6444  138.9244  166.7832 C.3     1  UNL1        0.0403
     42 C         137.6764  137.7810  166.8581 C.2     1  UNL1        0.0501
     43 O         137.8021  136.6284  165.9066 O.co2   1  UNL1       -0.5492
     44 O         136.5825  137.7904  167.8846 O.co2   1  UNL1       -0.5492
@<TRIPOS>UNITY_ATOM_ATTR
43 1
charge -1
@<TRIPOS>BOND
     1    12    13    2
     2    13    14    1
     3    14    15    1
     4    15    16    1
     5    16    17   ar
     6    17    18   ar
     7    18    19   ar
     8    19    11    1
     9    11     9    1
    10     9     1    1
    11     1     2    1
    12     2     3    1
    13     3     4    1
    14     4    24    1
    15    24    25    1
    16    25    26    1
    17    26    27   ar
    18    27    28    1
    19    27    29   ar
    20    29    30   ar
    21    30    31   ar
    22    31    32   ar
    23    32    33   ar
    24    33    34   ar
    25    34    37    1
    26    37    38    1
    27    39    38    1
    28    39    40    1
    29    40    41    1
    30    41    42    1
    31    42    43   ar
    32    42    44   ar
    33    34    35   ar
    34    35    36   ar
    35     4     5    1
    36     5     6    1
    37     4     7    1
    38     7     8    1
    39    19    20   ar
    40    20    21   ar
    41    21    22    1
    42    22    13   am
    43    21    16   ar
    44     6     1    1
    45     8     1    1
    46    36    26   ar
    47    36    31   ar
    48    41    39    1
    49     9    10    1
    50    22    23    1
@<TRIPOS>MOLECULE
*****
 44 50 0 0 0
SMALL
GASTEIGER

@<TRIPOS>ATOM
      1 C         140.8689  144.6673  164.1512 C.3     1  UNL1        0.0700
      2 C         141.9927  145.2290  163.3317 C.3     1  UNL1        0.0193
      3 C         143.3804  144.6812  163.4865 C.3     1  UNL1        0.0286
      4 C         143.6445  143.5717  164.4609 C.3     1  UNL1        0.0932
      5 C         142.5207  143.0100  165.2804 C.3     1  UNL1        0.0286
      6 C         141.1329  143.5579  165.1255 C.3     1  UNL1        0.0193
      7 O         142.8674  143.8394  164.4109 O.3     1  UNL1       -0.3572
      8 C         141.6126  144.3347  164.2709 C.3     1  UNL1        0.1562
      9 N         139.4811  145.2151  163.9964 N.3     1  UNL1       -0.2926
     10 H         139.0233  145.1176  164.9026 H       1  UNL1        0.1236
     11 C         138.5520  144.6267  162.9762 C.3     1  UNL1        0.1152
     12 O         140.1311  138.2360  158.8031 O.2     1  UNL1       -0.2707
     13 C         139.5297  138.8785  160.0178 C.2     1  UNL1        0.2718
     14 C         138.8532  138.0334  161.0561 C.3     1  UNL1        0.2898
     15 O         138.2517  138.6759  162.2707 O.3     1  UNL1       -0.4628
     16 C         138.3268  140.1636  162.4471 C.ar    1  UNL1        0.1708
     17 C         137.7253  140.8061  163.6618 C.ar    1  UNL1        0.0411
     18 C         137.8004  142.2938  163.8382 C.ar    1  UNL1        0.0193
     19 C         138.4769  143.1390  162.7999 C.ar    1  UNL1        0.0765
     20 N         139.0784  142.4965  161.5852 N.ar    1  UNL1       -0.2304
     21 C         139.0033  141.0087  161.4088 C.ar    1  UNL1        0.1682
     22 N         139.6048  140.3662  160.1942 N.am    1  UNL1       -0.2639
     23 H         140.0488  140.9209  159.5127 H       1  UNL1        0.1565
     24 C         145.0322  143.0239  164.6157 C.3     1  UNL1        0.0320
     25 C         145.4999  141.9054  163.7325 C.3     1  UNL1        0.0327
     26 C         144.5022  141.0821  162.9731 C.ar    1  UNL1        0.0261
     27 C         144.3106  141.3047  161.5021 C.ar    1  UNL1        0.1566
     28 F         145.1167  142.3506  160.7906 F       1  UNL1       -0.2028
     29 C         143.3129  140.4815  160.7427 C.ar    1  UNL1        0.1281
     30 N         142.5067  139.4356  161.4542 N.ar    1  UNL1       -0.2400
     31 C         142.6983  139.2129  162.9251 C.ar    1  UNL1        0.0990
     32 C         141.8921  138.1670  163.6366 C.ar    1  UNL1        0.0254
     33 C         142.0838  137.9444  165.1076 C.ar    1  UNL1        0.0593
     34 C         143.0815  138.7677  165.8670 C.ar    1  UNL1        0.2249
     35 N         143.8876  139.8136  165.1555 N.ar    1  UNL1       -0.2104
     36 C         143.6960  140.0362  163.6846 C.ar    1  UNL1        0.1002
     37 O         143.2731  138.5450  167.3380 O.3     1  UNL1       -0.4602
     38 C         142.6420  139.4802  168.3265 C.3     1  UNL1        0.2074
     39 C         141.2121  139.8998  168.1549 C.3     1  UNL1        0.0493
     40 C         140.0384  140.1794  167.2638 C.3     1  UNL1        0.0097
     41 C         139.9093  140.3468  168.7488 C.3     1  UNL1        0.0403
     42 C         139.0825  140.7014  169.9491 C.2     1  UNL1        0.0501
     43 O         138.0376  139.7481  170.4483 O.co2   1  UNL1       -0.5492
     44 O         139.3007  142.0095  170.6502 O.co2   1  UNL1       -0.5492
@<TRIPOS>UNITY_ATOM_ATTR
43 1
charge -1
@<TRIPOS>BOND
     1    12    13    2
     2    13    14    1
     3    14    15    1
     4    15    16    1
     5    16    17   ar
     6    17    18   ar
     7    18    19   ar
     8    19    11    1
     9    11     9    1
    10     9     1    1
    11     1     2    1
    12     2     3    1
    13     3     4    1
    14     4    24    1
    15    24    25    1
    16    25    26    1
    17    26    27   ar
    18    27    28    1
    19    27    29   ar
    20    29    30   ar
    21    30    31   ar
    22    31    32   ar
    23    32    33   ar
    24    33    34   ar
    25    34    37    1
    26    37    38    1
    27    39    38    1
    28    39    40    1
    29    40    41    1
    30    41    42    1
    31    42    43   ar
    32    42    44   ar
    33    34    35   ar
    34    35    36   ar
    35     4     5    1
    36     5     6    1
    37     4     7    1
    38     7     8    1
    39    19    20   ar
    40    20    21   ar
    41    21    22    1
    42    22    13   am
    43    21    16   ar
    44     6     1    1
    45     8     1    1
    46    36    26   ar
    47    36    31   ar
    48    41    39    1
    49     9    10    1
    50    22    23    1
@<TRIPOS>MOLECULE
*****
 44 50 0 0 0
SMALL
GASTEIGER

@<TRIPOS>ATOM
      1 C         137.8477  140.0730  162.5860 C.3     1  UNL1        0.0700
      2 C         137.7172  141.2867  161.7144 C.3     1  UNL1        0.0193
      3 C         137.7859  142.6568  162.3212 C.3     1  UNL1        0.0286
      4 C         137.9852  142.8131  163.7997 C.3     1  UNL1        0.0932
      5 C         138.1157  141.5993  164.6713 C.3     1  UNL1        0.0286
      6 C         138.0470  140.2292  164.0644 C.3     1  UNL1        0.0193
      7 O         137.9539  142.0419  163.5129 O.3     1  UNL1       -0.3572
      8 C         137.8918  140.8031  162.9642 C.3     1  UNL1        0.1562
      9 N         137.7790  138.7029  161.9792 N.3     1  UNL1       -0.2926
     10 H         137.4717  138.0692  162.7170 H       1  UNL1        0.1236
     11 C         139.0040  138.0919  161.3659 C.3     1  UNL1        0.1152
     12 O         144.0348  138.0025  167.3185 O.2     1  UNL1       -0.2707
     13 C         143.7135  138.3467  165.8943 C.2     1  UNL1        0.2718
     14 C         144.7476  139.0053  165.0302 C.3     1  UNL1        0.2898
     15 O         144.4262  139.3495  163.6060 O.3     1  UNL1       -0.4628
     16 C         143.0707  139.0351  163.0460 C.ar    1  UNL1        0.1708
     17 C         142.7493  139.3793  161.6219 C.ar    1  UNL1        0.0411
     18 C         141.3938  139.0650  161.0618 C.ar    1  UNL1        0.0193
     19 C         140.3596  138.4063  161.9260 C.ar    1  UNL1        0.0765
     20 N         140.6809  138.0621  163.3501 N.ar    1  UNL1       -0.2304
     21 C         142.0365  138.3765  163.9101 C.ar    1  UNL1        0.1682
     22 N         142.3579  138.0323  165.3343 N.am    1  UNL1       -0.2639
     23 H         141.6792  137.6000  165.9015 H       1  UNL1        0.1565
     24 C         138.0539  144.1831  164.4065 C.3     1  UNL1        0.0320
     25 C         139.3669  144.9045  164.4830 C.3     1  UNL1        0.0327
     26 C         140.3272  144.8382  163.3327 C.ar    1  UNL1        0.0261
     27 C         139.9697  145.4696  162.0198 C.ar    1  UNL1        0.1566
     28 F         138.6519  146.1673  161.8573 F       1  UNL1       -0.2028
     29 C         140.9301  145.4032  160.8695 C.ar    1  UNL1        0.1281
     30 N         142.2480  144.7055  161.0320 N.ar    1  UNL1       -0.2400
     31 C         142.6055  144.0741  162.3448 C.ar    1  UNL1        0.0990
     32 C         143.9234  143.3764  162.5074 C.ar    1  UNL1        0.0254
     33 C         144.2808  142.7450  163.8203 C.ar    1  UNL1        0.0593
     34 C         143.3205  142.8113  164.9706 C.ar    1  UNL1        0.2249
     35 N         142.0026  143.5091  164.8080 N.ar    1  UNL1       -0.2104
     36 C         141.6451  144.1404  163.4952 C.ar    1  UNL1        0.1002
     37 O         143.6780  142.1800  166.2834 O.3     1  UNL1       -0.4602
     38 C         142.5955  141.7011  167.2048 C.3     1  UNL1        0.2074
     39 C         142.4975  142.2517  168.5967 C.3     1  UNL1        0.0493
     40 C         143.1426  142.5920  169.9075 C.3     1  UNL1        0.0097
     41 C         141.6827  142.8649  169.6967 C.3     1  UNL1        0.0403
     42 C         140.3695  143.3765  170.2101 C.2     1  UNL1        0.0501
     43 O         140.0910  144.8504  170.2204 O.co2   1  UNL1       -0.5492
     44 O         139.3346  142.4142  170.7132 O.co2   1  UNL1       -0.5492
@<TRIPOS>UNITY_ATOM_ATTR
43 1
charge -1
@<TRIPOS>BOND
     1    12    13    2
     2    13    14    1
     3    14    15    1
     4    15    16    1
     5    16    17   ar
     6    17    18   ar
     7    18    19   ar
     8    19    11    1
     9    11     9    1
    10     9     1    1
    11     1     2    1
    12     2     3    1
    13     3     4    1
    14     4    24    1
    15    24    25    1
    16    25    26    1
    17    26    27   ar
    18    27    28    1
    19    27    29   ar
    20    29    30   ar
    21    30    31   ar
    22    31    32   ar
    23    32    33   ar
    24    33    34   ar
    25    34    37    1
    26    37    38    1
    27    39    38    1
    28    39    40    1
    29    40    41    1
    30    41    42    1
    31    42    43   ar
    32    42    44   ar
    33    34    35   ar
    34    35    36   ar
    35     4     5    1
    36     5     6    1
    37     4     7    1
    38     7     8    1
    39    19    20   ar
    40    20    21   ar
    41    21    22    1
    42    22    13   am
    43    21    16   ar
    44     6     1    1
    45     8     1    1
    46    36    26   ar
    47    36    31   ar
    48    41    39    1
    49     9    10    1
    50    22    23    1
@<TRIPOS>MOLECULE
*****
 44 50 0 0 0
SMALL
GASTEIGER

@<TRIPOS>ATOM
      1 C         142.0320  144.7155  162.9693 C.3     1  UNL1        0.0700
      2 C         142.1026  144.1821  164.3695 C.3     1  UNL1        0.0193
      3 C         142.9078  142.9512  164.6635 C.3     1  UNL1        0.0286
      4 C         143.6425  142.2536  163.5572 C.3     1  UNL1        0.0932
      5 C         143.5719  142.7870  162.1570 C.3     1  UNL1        0.0286
      6 C         142.7667  144.0179  161.8631 C.3     1  UNL1        0.0193
      7 O         143.2142  142.9248  163.3475 O.3     1  UNL1       -0.3572
      8 C         142.4861  144.0378  163.0816 C.3     1  UNL1        0.1562
      9 N         141.2268  145.9464  162.6753 N.3     1  UNL1       -0.2926
     10 H         141.3406  146.5704  163.4741 H       1  UNL1        0.1236
     11 C         139.7530  145.8351  162.4191 C.3     1  UNL1        0.1152
     12 O         138.1630  139.7030  157.8782 O.2     1  UNL1       -0.2707
     13 C         138.0642  140.3983  159.2037 C.2     1  UNL1        0.2718
     14 C         137.3366  139.7448  160.3410 C.3     1  UNL1        0.2898
     15 O         137.2378  140.4400  161.6665 O.3     1  UNL1       -0.4628
     16 C         137.8666  141.7887  161.8546 C.ar    1  UNL1        0.1708
     17 C         137.7678  142.4840  163.1801 C.ar    1  UNL1        0.0411
     18 C         138.3966  143.8327  163.3683 C.ar    1  UNL1        0.0193
     19 C         139.1242  144.4863  162.2310 C.ar    1  UNL1        0.0765
     20 N         139.2230  143.7911  160.9055 N.ar    1  UNL1       -0.2304
     21 C         138.5942  142.4423  160.7173 C.ar    1  UNL1        0.1682
     22 N         138.6930  141.7470  159.3919 N.am    1  UNL1       -0.2639
     23 H         139.1705  142.1760  158.6454 H       1  UNL1        0.1565
     24 C         144.4477  141.0227  163.8512 C.3     1  UNL1        0.0320
     25 C         143.7644  139.7761  164.3301 C.3     1  UNL1        0.0327
     26 C         142.7793  139.0732  163.4439 C.ar    1  UNL1        0.0261
     27 C         143.1827  138.6481  162.0630 C.ar    1  UNL1        0.1566
     28 F         144.5713  138.9260  161.5685 F       1  UNL1       -0.2028
     29 C         142.1976  137.9452  161.1769 C.ar    1  UNL1        0.1281
     30 N         140.8090  137.6673  161.6714 N.ar    1  UNL1       -0.2400
     31 C         140.4055  138.0924  163.0522 C.ar    1  UNL1        0.0990
     32 C         139.0170  137.8145  163.5467 C.ar    1  UNL1        0.0254
     33 C         138.6135  138.2396  164.9276 C.ar    1  UNL1        0.0593
     34 C         139.5986  138.9425  165.8137 C.ar    1  UNL1        0.2249
     35 N         140.9872  139.2204  165.3192 N.ar    1  UNL1       -0.2104
     36 C         141.3907  138.7953  163.9384 C.ar    1  UNL1        0.1002
     37 O         139.1952  139.3675  167.1945 O.3     1  UNL1       -0.4602
     38 C         140.2066  139.9836  168.1152 C.3     1  UNL1        0.2074
     39 C         140.3395  141.4757  168.1926 C.3     1  UNL1        0.0493
     40 C         140.5980  142.7933  167.5240 C.3     1  UNL1        0.0097
     41 C         140.3114  142.7424  168.9954 C.3     1  UNL1        0.0403
     42 C         140.1296  143.4444  170.3085 C.2     1  UNL1        0.0501
     43 O         140.0569  144.9419  170.3546 O.co2   1  UNL1       -0.5492
     44 O         140.0205  142.6488  171.5755 O.co2   1  UNL1       -0.5492
@<TRIPOS>UNITY_ATOM_ATTR
43 1
charge -1
@<TRIPOS>BOND
     1    12    13    2
     2    13    14    1
     3    14    15    1
     4    15    16    1
     5    16    17   ar
     6    17    18   ar
     7    18    19   ar
     8    19    11    1
     9    11     9    1
    10     9     1    1
    11     1     2    1
    12     2     3    1
    13     3     4    1
    14     4    24    1
    15    24    25    1
    16    25    26    1
    17    26    27   ar
    18    27    28    1
    19    27    29   ar
    20    29    30   ar
    21    30    31   ar
    22    31    32   ar
    23    32    33   ar
    24    33    34   ar
    25    34    37    1
    26    37    38    1
    27    39    38    1
    28    39    40    1
    29    40    41    1
    30    41    42    1
    31    42    43   ar
    32    42    44   ar
    33    34    35   ar
    34    35    36   ar
    35     4     5    1
    36     5     6    1
    37     4     7    1
    38     7     8    1
    39    19    20   ar
    40    20    21   ar
    41    21    22    1
    42    22    13   am
    43    21    16   ar
    44     6     1    1
    45     8     1    1
    46    36    26   ar
    47    36    31   ar
    48    41    39    1
    49     9    10    1
    50    22    23    1
@<TRIPOS>MOLECULE
*****
 44 50 0 0 0
SMALL
GASTEIGER

@<TRIPOS>ATOM
      1 C         144.3531  139.8051  163.3736 C.3     1  UNL1        0.0700
      2 C         143.6303  139.2885  162.1650 C.3     1  UNL1        0.0193
      3 C         142.3838  138.4705  162.3292 C.3     1  UNL1        0.0286
      4 C         141.8600  138.1690  163.7022 C.3     1  UNL1        0.0932
      5 C         142.5828  138.6856  164.9108 C.3     1  UNL1        0.0286
      6 C         143.8294  139.5036  164.7465 C.3     1  UNL1        0.0193
      7 O         142.5469  138.6214  163.6623 O.3     1  UNL1       -0.3572
      8 C         143.6740  139.3611  163.5138 C.3     1  UNL1        0.1562
      9 N         145.5996  140.6231  163.2093 N.3     1  UNL1       -0.2926
     10 H         146.3308  140.1566  163.7461 H       1  UNL1        0.1236
     11 C         145.6108  142.0646  163.6241 C.3     1  UNL1        0.1152
     12 O         140.6025  145.3759  158.6541 O.2     1  UNL1       -0.2707
     13 C         141.0708  145.1346  160.0585 C.2     1  UNL1        0.2718
     14 C         140.3382  145.7556  161.2106 C.3     1  UNL1        0.2898
     15 O         140.8065  145.5142  162.6150 O.3     1  UNL1       -0.4628
     16 C         142.0076  144.6519  162.8673 C.ar    1  UNL1        0.1708
     17 C         142.4760  144.4105  164.2717 C.ar    1  UNL1        0.0411
     18 C         143.6770  143.5481  164.5240 C.ar    1  UNL1        0.0193
     19 C         144.4098  142.9270  163.3718 C.ar    1  UNL1        0.0765
     20 N         143.9414  143.1684  161.9674 N.ar    1  UNL1       -0.2304
     21 C         142.7403  144.0308  161.7152 C.ar    1  UNL1        0.1682
     22 N         142.2719  144.2722  160.3108 N.am    1  UNL1       -0.2639
     23 H         142.7528  143.8645  159.5546 H       1  UNL1        0.1565
     24 C         140.6135  137.3510  163.8664 C.3     1  UNL1        0.0320
     25 C         139.3387  138.0069  164.3074 C.3     1  UNL1        0.0327
     26 C         138.7099  139.0712  163.4578 C.ar    1  UNL1        0.0261
     27 C         137.9935  138.6965  162.1943 C.ar    1  UNL1        0.1566
     28 F         137.9058  137.2573  161.7805 F       1  UNL1       -0.2028
     29 C         137.3648  139.7608  161.3447 C.ar    1  UNL1        0.1281
     30 N         137.4524  141.1999  161.7585 N.ar    1  UNL1       -0.2400
     31 C         138.1688  141.5747  163.0219 C.ar    1  UNL1        0.0990
     32 C         138.2565  143.0138  163.4357 C.ar    1  UNL1        0.0254
     33 C         138.9730  143.3886  164.6992 C.ar    1  UNL1        0.0593
     34 C         139.6017  142.3243  165.5488 C.ar    1  UNL1        0.2249
     35 N         139.5140  140.8852  165.1350 N.ar    1  UNL1       -0.2104
     36 C         138.7976  140.5104  163.8716 C.ar    1  UNL1        0.1002
     37 O         140.3181  142.6991  166.8122 O.3     1  UNL1       -0.4602
     38 C         141.6367  142.0651  167.1431 C.3     1  UNL1        0.2074
     39 C         142.0625  141.9232  168.5744 C.3     1  UNL1        0.0493
     40 C         143.1329  141.9847  169.6235 C.3     1  UNL1        0.0097
     41 C         141.7297  141.6161  170.0044 C.3     1  UNL1        0.0403
     42 C         140.7274  141.2260  171.0499 C.2     1  UNL1        0.0501
     43 O         140.4682  142.1332  172.2159 O.co2   1  UNL1       -0.5492
     44 O         139.9842  139.9285  170.9293 O.co2   1  UNL1       -0.5492
@<TRIPOS>UNITY_ATOM_ATTR
43 1
charge -1
@<TRIPOS>BOND
     1    12    13    2
     2    13    14    1
     3    14    15    1
     4    15    16    1
     5    16    17   ar
     6    17    18   ar
     7    18    19   ar
     8    19    11    1
     9    11     9    1
    10     9     1    1
    11     1     2    1
    12     2     3    1
    13     3     4    1
    14     4    24    1
    15    24    25    1
    16    25    26    1
    17    26    27   ar
    18    27    28    1
    19    27    29   ar
    20    29    30   ar
    21    30    31   ar
    22    31    32   ar
    23    32    33   ar
    24    33    34   ar
    25    34    37    1
    26    37    38    1
    27    39    38    1
    28    39    40    1
    29    40    41    1
    30    41    42    1
    31    42    43   ar
    32    42    44   ar
    33    34    35   ar
    34    35    36   ar
    35     4     5    1
    36     5     6    1
    37     4     7    1
    38     7     8    1
    39    19    20   ar
    40    20    21   ar
    41    21    22    1
    42    22    13   am
    43    21    16   ar
    44     6     1    1
    45     8     1    1
    46    36    26   ar
    47    36    31   ar
    48    41    39    1
    49     9    10    1
    50    22    23    1
@<TRIPOS>MOLECULE
*****
 44 50 0 0 0
SMALL
GASTEIGER

@<TRIPOS>ATOM
      1 C         138.3605  143.5514  162.8236 C.3     1  UNL1        0.0700
      2 C         138.9454  143.5620  161.4424 C.3     1  UNL1        0.0193
      3 C         138.7431  142.3863  160.5332 C.3     1  UNL1        0.0286
      4 C         137.9558  141.1998  161.0052 C.3     1  UNL1        0.0932
      5 C         137.3709  141.1893  162.3864 C.3     1  UNL1        0.0286
      6 C         137.5732  142.3651  163.2956 C.3     1  UNL1        0.0193
      7 O         138.0400  141.8208  161.5393 O.3     1  UNL1       -0.3572
      8 C         138.2230  142.8839  162.3614 C.3     1  UNL1        0.1562
      9 N         138.5628  144.7272  163.7328 N.3     1  UNL1       -0.2926
     10 H         138.7333  145.5358  163.1349 H       1  UNL1        0.1236
     11 C         139.6607  144.7049  164.7546 C.3     1  UNL1        0.1152
     12 O         145.1590  139.1825  164.6096 O.2     1  UNL1       -0.2707
     13 C         144.7027  140.5705  164.2702 C.2     1  UNL1        0.2718
     14 C         145.6228  141.5057  163.5430 C.3     1  UNL1        0.2898
     15 O         145.1665  142.8937  163.2036 O.3     1  UNL1       -0.4628
     16 C         143.7900  143.3465  163.5913 C.ar    1  UNL1        0.1708
     17 C         143.3337  144.7345  163.2519 C.ar    1  UNL1        0.0411
     18 C         141.9573  145.1873  163.6397 C.ar    1  UNL1        0.0193
     19 C         141.0371  144.2521  164.3669 C.ar    1  UNL1        0.0765
     20 N         141.4935  142.8641  164.7063 N.ar    1  UNL1       -0.2304
     21 C         142.8700  142.4113  164.3185 C.ar    1  UNL1        0.1682
     22 N         143.3263  141.0233  164.6579 N.am    1  UNL1       -0.2639
     23 H         142.7224  140.4095  165.1352 H       1  UNL1        0.1565
     24 C         137.7535  140.0241  160.0960 C.3     1  UNL1        0.0320
     25 C         138.2645  138.6713  160.4944 C.3     1  UNL1        0.0327
     26 C         139.7136  138.4874  160.8353 C.ar    1  UNL1        0.0261
     27 C         140.7590  138.6320  159.7693 C.ar    1  UNL1        0.1566
     28 F         140.3553  138.9604  158.3625 F       1  UNL1       -0.2028
     29 C         142.2081  138.4481  160.1101 C.ar    1  UNL1        0.1281
     30 N         142.6119  138.1197  161.5169 N.ar    1  UNL1       -0.2400
     31 C         141.5666  137.9751  162.5829 C.ar    1  UNL1        0.0990
     32 C         141.9703  137.6466  163.9897 C.ar    1  UNL1        0.0254
     33 C         140.9249  137.5021  165.0557 C.ar    1  UNL1        0.0593
     34 C         139.4758  137.6859  164.7148 C.ar    1  UNL1        0.2249
     35 N         139.0720  138.0144  163.3080 N.ar    1  UNL1       -0.2104
     36 C         140.1174  138.1590  162.2421 C.ar    1  UNL1        0.1002
     37 O         138.4304  137.5414  165.7808 O.3     1  UNL1       -0.4602
     38 C         138.0102  138.7351  166.5860 C.3     1  UNL1        0.2074
     39 C         139.0378  139.5428  167.3220 C.3     1  UNL1        0.0493
     40 C         140.3356  140.2950  167.3322 C.3     1  UNL1        0.0097
     41 C         139.5199  140.1895  168.5866 C.3     1  UNL1        0.0403
     42 C         139.3274  140.5020  170.0410 C.2     1  UNL1        0.0501
     43 O         139.3845  139.4015  171.0586 O.co2   1  UNL1       -0.5492
     44 O         139.0777  141.9152  170.4779 O.co2   1  UNL1       -0.5492
@<TRIPOS>UNITY_ATOM_ATTR
43 1
charge -1
@<TRIPOS>BOND
     1    12    13    2
     2    13    14    1
     3    14    15    1
     4    15    16    1
     5    16    17   ar
     6    17    18   ar
     7    18    19   ar
     8    19    11    1
     9    11     9    1
    10     9     1    1
    11     1     2    1
    12     2     3    1
    13     3     4    1
    14     4    24    1
    15    24    25    1
    16    25    26    1
    17    26    27   ar
    18    27    28    1
    19    27    29   ar
    20    29    30   ar
    21    30    31   ar
    22    31    32   ar
    23    32    33   ar
    24    33    34   ar
    25    34    37    1
    26    37    38    1
    27    39    38    1
    28    39    40    1
    29    40    41    1
    30    41    42    1
    31    42    43   ar
    32    42    44   ar
    33    34    35   ar
    34    35    36   ar
    35     4     5    1
    36     5     6    1
    37     4     7    1
    38     7     8    1
    39    19    20   ar
    40    20    21   ar
    41    21    22    1
    42    22    13   am
    43    21    16   ar
    44     6     1    1
    45     8     1    1
    46    36    26   ar
    47    36    31   ar
    48    41    39    1
    49     9    10    1
    50    22    23    1
@<TRIPOS>MOLECULE
*****
 44 50 0 0 0
SMALL
GASTEIGER

@<TRIPOS>ATOM
      1 C         137.9326  140.2429  161.7738 C.3     1  UNL1        0.0700
      2 C         137.5544  140.4439  163.2113 C.3     1  UNL1        0.0193
      3 C         137.5107  141.8275  163.7889 C.3     1  UNL1        0.0286
      4 C         137.8453  143.0102  162.9290 C.3     1  UNL1        0.0932
      5 C         138.2235  142.8091  161.4914 C.3     1  UNL1        0.0286
      6 C         138.2671  141.4254  160.9138 C.3     1  UNL1        0.0193
      7 O         137.8830  142.2712  162.5679 O.3     1  UNL1       -0.3572
      8 C         137.9225  141.0201  162.0456 C.3     1  UNL1        0.1562
      9 N         137.9762  138.8593  161.1961 N.3     1  UNL1       -0.2926
     10 H         137.5564  138.2381  161.8878 H       1  UNL1        0.1236
     11 C         139.2907  138.2497  160.8078 C.3     1  UNL1        0.1152
     12 O         145.9878  141.6803  162.8400 O.2     1  UNL1       -0.2707
     13 C         144.9330  140.6424  163.0857 C.2     1  UNL1        0.2718
     14 C         145.0558  139.7103  164.2545 C.3     1  UNL1        0.2898
     15 O         144.0010  138.6725  164.5002 O.3     1  UNL1       -0.4628
     16 C         142.8234  138.5668  163.5771 C.ar    1  UNL1        0.1708
     17 C         141.7687  137.5290  163.8228 C.ar    1  UNL1        0.0411
     18 C         140.5911  137.4233  162.8997 C.ar    1  UNL1        0.0193
     19 C         140.4682  138.3554  161.7309 C.ar    1  UNL1        0.0765
     20 N         141.5230  139.3932  161.4852 N.ar    1  UNL1       -0.2304
     21 C         142.7006  139.4989  162.4083 C.ar    1  UNL1        0.1682
     22 N         143.7554  140.5367  162.1627 N.am    1  UNL1       -0.2639
     23 H         143.6748  141.1485  161.3955 H       1  UNL1        0.1565
     24 C         137.8017  144.3938  163.5066 C.3     1  UNL1        0.0320
     25 C         138.8472  144.8293  164.4900 C.3     1  UNL1        0.0327
     26 C         140.2734  144.4025  164.3067 C.ar    1  UNL1        0.0261
     27 C         141.1519  145.1229  163.3271 C.ar    1  UNL1        0.1566
     28 F         140.6041  146.2700  162.5310 F       1  UNL1       -0.2028
     29 C         142.5781  144.6960  163.1438 C.ar    1  UNL1        0.1281
     30 N         143.1260  143.5488  163.9399 N.ar    1  UNL1       -0.2400
     31 C         142.2476  142.8285  164.9194 C.ar    1  UNL1        0.0990
     32 C         142.7954  141.6813  165.7156 C.ar    1  UNL1        0.0254
     33 C         141.9169  140.9609  166.6951 C.ar    1  UNL1        0.0593
     34 C         140.4907  141.3877  166.8784 C.ar    1  UNL1        0.2249
     35 N         139.9429  142.5349  166.0823 N.ar    1  UNL1       -0.2104
     36 C         140.8213  143.2553  165.1028 C.ar    1  UNL1        0.1002
     37 O         139.6123  140.6674  167.8579 O.3     1  UNL1       -0.4602
     38 C         140.2034  140.0824  169.1063 C.3     1  UNL1        0.2074
     39 C         141.4292  140.6965  169.7149 C.3     1  UNL1        0.0493
     40 C         142.8201  140.5548  170.2584 C.3     1  UNL1        0.0097
     41 C         142.1613  141.9020  170.2255 C.3     1  UNL1        0.0403
     42 C         142.2037  143.3758  170.5014 C.2     1  UNL1        0.0501
     43 O         141.0031  144.2276  170.2134 O.co2   1  UNL1       -0.5492
     44 O         143.4468  143.9978  171.0654 O.co2   1  UNL1       -0.5492
@<TRIPOS>UNITY_ATOM_ATTR
43 1
charge -1
@<TRIPOS>BOND
     1    12    13    2
     2    13    14    1
     3    14    15    1
     4    15    16    1
     5    16    17   ar
     6    17    18   ar
     7    18    19   ar
     8    19    11    1
     9    11     9    1
    10     9     1    1
    11     1     2    1
    12     2     3    1
    13     3     4    1
    14     4    24    1
    15    24    25    1
    16    25    26    1
    17    26    27   ar
    18    27    28    1
    19    27    29   ar
    20    29    30   ar
    21    30    31   ar
    22    31    32   ar
    23    32    33   ar
    24    33    34   ar
    25    34    37    1
    26    37    38    1
    27    39    38    1
    28    39    40    1
    29    40    41    1
    30    41    42    1
    31    42    43   ar
    32    42    44   ar
    33    34    35   ar
    34    35    36   ar
    35     4     5    1
    36     5     6    1
    37     4     7    1
    38     7     8    1
    39    19    20   ar
    40    20    21   ar
    41    21    22    1
    42    22    13   am
    43    21    16   ar
    44     6     1    1
    45     8     1    1
    46    36    26   ar
    47    36    31   ar
    48    41    39    1
    49     9    10    1
    50    22    23    1
@<TRIPOS>MOLECULE
*****
 44 50 0 0 0
SMALL
GASTEIGER

@<TRIPOS>ATOM
      1 C         137.8938  142.5909  163.2596 C.3     1  UNL1        0.0700
      2 C         137.9194  141.8222  161.9718 C.3     1  UNL1        0.0193
      3 C         138.0989  140.3331  161.9906 C.3     1  UNL1        0.0286
      4 C         138.2529  139.6126  163.2973 C.3     1  UNL1        0.0932
      5 C         138.2273  140.3813  164.5851 C.3     1  UNL1        0.0286
      6 C         138.0478  141.8705  164.5662 C.3     1  UNL1        0.0193
      7 O         138.1570  140.4294  163.3373 O.3     1  UNL1       -0.3572
      8 C         137.9947  141.7759  163.3203 C.3     1  UNL1        0.1562
      9 N         137.7143  144.0799  163.2408 N.3     1  UNL1       -0.2926
     10 H         137.2952  144.3146  162.3410 H       1  UNL1        0.1236
     11 C         138.9012  144.9807  163.4138 C.3     1  UNL1        0.1152
     12 O         144.5710  142.3422  158.7617 O.2     1  UNL1       -0.2707
     13 C         144.0676  142.6779  160.1343 C.2     1  UNL1        0.2718
     14 C         144.9508  142.4698  161.3287 C.3     1  UNL1        0.2898
     15 O         144.4474  142.8055  162.7013 O.3     1  UNL1       -0.4628
     16 C         143.0609  143.3493  162.8794 C.ar    1  UNL1        0.1708
     17 C         142.5575  143.6850  164.2520 C.ar    1  UNL1        0.0411
     18 C         141.1710  144.2288  164.4301 C.ar    1  UNL1        0.0193
     19 C         140.2878  144.4369  163.2357 C.ar    1  UNL1        0.0765
     20 N         140.7911  144.1012  161.8631 N.ar    1  UNL1       -0.2304
     21 C         142.1777  143.5574  161.6850 C.ar    1  UNL1        0.1682
     22 N         142.6811  143.2217  160.3124 N.am    1  UNL1       -0.2639
     23 H         142.1014  143.3582  159.5285 H       1  UNL1        0.1565
     24 C         138.4324  138.1236  163.3161 C.3     1  UNL1        0.0320
     25 C         139.7877  137.5347  163.5738 C.3     1  UNL1        0.0327
     26 C         140.9879  138.0703  162.8510 C.ar    1  UNL1        0.0261
     27 C         140.9688  138.1966  161.3564 C.ar    1  UNL1        0.1566
     28 F         139.7495  137.7873  160.5847 F       1  UNL1       -0.2028
     29 C         142.1691  138.7322  160.6336 C.ar    1  UNL1        0.1281
     30 N         143.3885  139.1415  161.4054 N.ar    1  UNL1       -0.2400
     31 C         143.4076  139.0152  162.8999 C.ar    1  UNL1        0.0990
     32 C         144.6270  139.4245  163.6716 C.ar    1  UNL1        0.0254
     33 C         144.6461  139.2982  165.1662 C.ar    1  UNL1        0.0593
     34 C         143.4458  138.7626  165.8890 C.ar    1  UNL1        0.2249
     35 N         142.2264  138.3533  165.1173 N.ar    1  UNL1       -0.2104
     36 C         142.2073  138.4796  163.6228 C.ar    1  UNL1        0.1002
     37 O         143.4649  138.6363  167.3835 O.3     1  UNL1       -0.4602
     38 C         142.4667  139.3887  168.2126 C.3     1  UNL1        0.2074
     39 C         142.5720  140.8794  168.3435 C.3     1  UNL1        0.0493
     40 C         143.0320  142.2015  167.8046 C.3     1  UNL1        0.0097
     41 C         142.2943  142.1390  169.1091 C.3     1  UNL1        0.0403
     42 C         141.7080  142.8301  170.3044 C.2     1  UNL1        0.0501
     43 O         141.0516  144.1699  170.1489 O.co2   1  UNL1       -0.5492
     44 O         141.7781  142.1815  171.6551 O.co2   1  UNL1       -0.5492
@<TRIPOS>UNITY_ATOM_ATTR
43 1
charge -1
@<TRIPOS>BOND
     1    12    13    2
     2    13    14    1
     3    14    15    1
     4    15    16    1
     5    16    17   ar
     6    17    18   ar
     7    18    19   ar
     8    19    11    1
     9    11     9    1
    10     9     1    1
    11     1     2    1
    12     2     3    1
    13     3     4    1
    14     4    24    1
    15    24    25    1
    16    25    26    1
    17    26    27   ar
    18    27    28    1
    19    27    29   ar
    20    29    30   ar
    21    30    31   ar
    22    31    32   ar
    23    32    33   ar
    24    33    34   ar
    25    34    37    1
    26    37    38    1
    27    39    38    1
    28    39    40    1
    29    40    41    1
    30    41    42    1
    31    42    43   ar
    32    42    44   ar
    33    34    35   ar
    34    35    36   ar
    35     4     5    1
    36     5     6    1
    37     4     7    1
    38     7     8    1
    39    19    20   ar
    40    20    21   ar
    41    21    22    1
    42    22    13   am
    43    21    16   ar
    44     6     1    1
    45     8     1    1
    46    36    26   ar
    47    36    31   ar
    48    41    39    1
    49     9    10    1
    50    22    23    1
@<TRIPOS>MOLECULE
*****
 44 50 0 0 0
SMALL
GASTEIGER

@<TRIPOS>ATOM
      1 C         138.1211  143.5853  163.1593 C.3     1  UNL1        0.0700
      2 C         137.6187  142.4004  162.3889 C.3     1  UNL1        0.0193
      3 C         137.7326  141.0233  162.9724 C.3     1  UNL1        0.0286
      4 C         138.3491  140.8310  164.3263 C.3     1  UNL1        0.0932
      5 C         138.8516  142.0159  165.0967 C.3     1  UNL1        0.0286
      6 C         138.7376  143.3931  164.5132 C.3     1  UNL1        0.0193
      7 O         138.3084  141.6048  164.0479 O.3     1  UNL1       -0.3572
      8 C         138.2053  142.8501  163.5203 C.3     1  UNL1        0.1562
      9 N         138.0072  144.9625  162.5759 N.3     1  UNL1       -0.2926
     10 H         137.4094  144.8851  161.7530 H       1  UNL1        0.1236
     11 C         139.2411  145.6998  162.1470 C.3     1  UNL1        0.1152
     12 O         146.0032  141.8810  162.8111 O.2     1  UNL1       -0.2707
     13 C         144.8872  142.4081  161.9585 C.2     1  UNL1        0.2718
     14 C         144.9094  142.1893  160.4748 C.3     1  UNL1        0.2898
     15 O         143.7934  142.7163  159.6222 O.3     1  UNL1       -0.4628
     16 C         142.6553  143.4622  160.2534 C.ar    1  UNL1        0.1708
     17 C         141.5394  143.9892  159.4008 C.ar    1  UNL1        0.0411
     18 C         140.4013  144.7351  160.0320 C.ar    1  UNL1        0.0193
     19 C         140.3791  144.9539  161.5158 C.ar    1  UNL1        0.0765
     20 N         141.4951  144.4269  162.3684 N.ar    1  UNL1       -0.2304
     21 C         142.6332  143.6810  161.7371 C.ar    1  UNL1        0.1682
     22 N         143.7491  143.1539  162.5897 N.am    1  UNL1       -0.2639
     23 H         143.7346  143.2976  163.5636 H       1  UNL1        0.1565
     24 C         138.4631  139.4539  164.9098 C.3     1  UNL1        0.0320
     25 C         139.1380  138.3633  164.1319 C.3     1  UNL1        0.0327
     26 C         140.3860  138.6588  163.3540 C.ar    1  UNL1        0.0261
     27 C         140.3173  138.8401  161.8665 C.ar    1  UNL1        0.1566
     28 F         139.0007  138.7258  161.1570 F       1  UNL1       -0.2028
     29 C         141.5653  139.1356  161.0887 C.ar    1  UNL1        0.1281
     30 N         142.8820  139.2499  161.7982 N.ar    1  UNL1       -0.2400
     31 C         142.9506  139.0687  163.2856 C.ar    1  UNL1        0.0990
     32 C         144.2672  139.1830  163.9951 C.ar    1  UNL1        0.0254
     33 C         144.3358  139.0017  165.4826 C.ar    1  UNL1        0.0593
     34 C         143.0879  138.7062  166.2605 C.ar    1  UNL1        0.2249
     35 N         141.7712  138.5919  165.5509 N.ar    1  UNL1       -0.2104
     36 C         141.7026  138.7731  164.0635 C.ar    1  UNL1        0.1002
     37 O         143.1565  138.5249  167.7478 O.3     1  UNL1       -0.4602
     38 C         142.5842  139.5708  168.6581 C.3     1  UNL1        0.2074
     39 C         142.8184  141.0244  168.3710 C.3     1  UNL1        0.0493
     40 C         142.9609  142.4374  168.8539 C.3     1  UNL1        0.0097
     41 C         143.0817  142.1290  167.3910 C.3     1  UNL1        0.0403
     42 C         143.3034  142.5887  165.9805 C.2     1  UNL1        0.0501
     43 O         144.4382  143.5170  165.6638 O.co2   1  UNL1       -0.5492
     44 O         142.3903  142.1199  164.8865 O.co2   1  UNL1       -0.5492
@<TRIPOS>UNITY_ATOM_ATTR
43 1
charge -1
@<TRIPOS>BOND
     1    12    13    2
     2    13    14    1
     3    14    15    1
     4    15    16    1
     5    16    17   ar
     6    17    18   ar
     7    18    19   ar
     8    19    11    1
     9    11     9    1
    10     9     1    1
    11     1     2    1
    12     2     3    1
    13     3     4    1
    14     4    24    1
    15    24    25    1
    16    25    26    1
    17    26    27   ar
    18    27    28    1
    19    27    29   ar
    20    29    30   ar
    21    30    31   ar
    22    31    32   ar
    23    32    33   ar
    24    33    34   ar
    25    34    37    1
    26    37    38    1
    27    39    38    1
    28    39    40    1
    29    40    41    1
    30    41    42    1
    31    42    43   ar
    32    42    44   ar
    33    34    35   ar
    34    35    36   ar
    35     4     5    1
    36     5     6    1
    37     4     7    1
    38     7     8    1
    39    19    20   ar
    40    20    21   ar
    41    21    22    1
    42    22    13   am
    43    21    16   ar
    44     6     1    1
    45     8     1    1
    46    36    26   ar
    47    36    31   ar
    48    41    39    1
    49     9    10    1
    50    22    23    1
