@<TRIPOS>MOLECULE
*****
 44 48 0 0 0
SMALL
GASTEIGER

@<TRIPOS>ATOM
      1 C         141.7104  137.7977  164.1632 C.3     1  UNL1        0.0851
      2 C         141.8633  137.9862  162.6829 C.3     1  UNL1        0.0118
      3 C         143.2311  138.0177  162.0682 C.3     1  UNL1        0.0179
      4 C         143.3839  138.2062  160.5879 C.3     1  UNL1        0.0724
      5 N         142.1688  138.3632  159.7225 N.3     1  UNL1       -0.2689
      6 C         140.8010  138.3318  160.3373 C.3     1  UNL1        0.0724
      7 C         140.6482  138.1433  161.8175 C.3     1  UNL1        0.0179
      8 C         142.3217  138.5518  158.2422 C.3     1  UNL1        0.1007
      9 C         142.2781  137.3645  157.3265 C.ar    1  UNL1        0.0129
     10 C         141.4408  137.2362  156.0886 C.ar    1  UNL1        0.0176
     11 C         141.7093  135.8896  155.4849 C.ar    1  UNL1        0.0799
     12 N         142.7126  135.1856  156.3498 N.ar    1  UNL1       -0.3038
     13 C         143.0641  136.0972  157.4879 C.ar    1  UNL1        0.0772
     14 C         143.2670  133.8113  156.1173 C.ar    1  UNL1        0.0640
     15 C         142.9255  133.0676  154.8602 C.ar    1  UNL1        0.0175
     16 C         143.4799  131.6934  154.6277 C.ar    1  UNL1        0.0053
     17 C         144.3758  131.0629  155.6522 C.ar    1  UNL1        0.0715
     18 C         144.7173  131.8065  156.9093 C.ar    1  UNL1        0.0053
     19 C         144.1629  133.1808  157.1418 C.ar    1  UNL1        0.0175
     20 C         144.9302  129.6886  155.4197 C.3     1  UNL1        0.4186
     21 F         145.4846  128.3144  155.1871 F       1  UNL1       -0.1659
     22 F         144.9732  129.4554  156.9008 F       1  UNL1       -0.1659
     23 F         144.8871  129.9218  153.9385 F       1  UNL1       -0.1659
     24 O         139.4881  138.2976  165.4127 O.2     1  UNL1       -0.2751
     25 C         140.8472  138.7358  164.9536 C.2     1  UNL1        0.2229
     26 N         141.3430  140.1123  165.2848 N.am    1  UNL1       -0.2986
     27 H         142.2350  140.3999  164.9834 H       1  UNL1        0.1500
     28 C         140.4797  141.0504  166.0751 C.3     1  UNL1        0.1184
     29 C         140.5070  141.0116  167.5744 C.ar    1  UNL1        0.0177
     30 C         139.5733  140.1034  168.3182 C.ar    1  UNL1        0.0723
     31 N         139.6005  140.0645  169.8174 N.ar    1  UNL1       -0.3194
     32 C         140.5614  140.9339  170.5729 C.ar    1  UNL1        0.2682
     33 O         140.5886  140.8951  172.0721 O.2     1  UNL1       -0.2663
     34 C         141.4951  141.8421  169.8291 C.ar    1  UNL1        0.1132
     35 CL        142.4561  142.7116  170.5845 Cl      1  UNL1       -0.0773
     36 C         141.4679  141.8809  168.3298 C.ar    1  UNL1        0.0153
     37 H         138.9876  139.4684  170.3056 H       1  UNL1        0.1690
     38 C         139.5893  142.0273  165.3662 C.ar    1  UNL1       -0.0001
     39 C         139.7894  143.5014  165.5593 C.ar    1  UNL1       -0.0001
     40 C         138.8989  144.4783  164.8503 C.ar    1  UNL1        0.0294
     41 C         137.8083  143.9813  163.9484 C.ar    1  UNL1        0.1401
     42 F         136.9178  144.9583  163.2395 F       1  UNL1       -0.2042
     43 C         137.6082  142.5073  163.7553 C.ar    1  UNL1        0.0294
     44 C         138.4987  141.5303  164.4642 C.ar    1  UNL1       -0.0001
@<TRIPOS>BOND
     1    24    25    2
     2    25     1    1
     3     1     2    1
     4     2     3    1
     5     3     4    1
     6     4     5    1
     7     5     8    1
     8     8     9    1
     9     9    10   ar
    10    10    11   ar
    11    11    12   ar
    12    12    14    1
    13    14    15   ar
    14    15    16   ar
    15    16    17   ar
    16    17    20    1
    17    20    21    1
    18    20    22    1
    19    20    23    1
    20    17    18   ar
    21    18    19   ar
    22    12    13   ar
    23     5     6    1
    24     6     7    1
    25    25    26   am
    26    26    28    1
    27    28    38    1
    28    38    39   ar
    29    39    40   ar
    30    40    41   ar
    31    41    42    1
    32    41    43   ar
    33    43    44   ar
    34    28    29    1
    35    29    30   ar
    36    30    31   ar
    37    31    32   ar
    38    32    33    2
    39    32    34   ar
    40    34    35    1
    41    34    36   ar
    42     7     2    1
    43    44    38   ar
    44    36    29   ar
    45    13     9   ar
    46    19    14   ar
    47    26    27    1
    48    31    37    1
@<TRIPOS>MOLECULE
*****
 44 48 0 0 0
SMALL
GASTEIGER

@<TRIPOS>ATOM
      1 C         137.7611  141.9186  163.8540 C.3     1  UNL1        0.0851
      2 C         137.9139  141.5194  162.4161 C.3     1  UNL1        0.0118
      3 C         138.2686  142.5497  161.3854 C.3     1  UNL1        0.0179
      4 C         138.4214  142.1505  159.9476 C.3     1  UNL1        0.0724
      5 N         138.2195  140.7210  159.5406 N.3     1  UNL1       -0.2689
      6 C         137.8648  139.6907  160.5714 C.3     1  UNL1        0.0724
      7 C         137.7120  140.0899  162.0091 C.3     1  UNL1        0.0179
      8 C         138.3723  140.3218  158.1027 C.3     1  UNL1        0.1007
      9 C         139.6174  139.6202  157.6474 C.ar    1  UNL1        0.0129
     10 C         140.9760  140.2394  157.5040 C.ar    1  UNL1        0.0176
     11 C         141.9208  139.1780  157.0235 C.ar    1  UNL1        0.0799
     12 N         141.1460  137.9027  156.8700 N.ar    1  UNL1       -0.3038
     13 C         139.7225  138.1760  157.2556 C.ar    1  UNL1        0.0772
     14 C         141.6980  136.5855  156.4115 C.ar    1  UNL1        0.0640
     15 C         140.9909  135.8077  155.3415 C.ar    1  UNL1        0.0175
     16 C         141.5428  134.4905  154.8829 C.ar    1  UNL1        0.0053
     17 C         142.8018  133.9511  155.4943 C.ar    1  UNL1        0.0715
     18 C         143.5089  134.7289  156.5644 C.ar    1  UNL1        0.0053
     19 C         142.9570  136.0461  157.0229 C.ar    1  UNL1        0.0175
     20 C         143.3537  132.6339  155.0358 C.3     1  UNL1        0.4186
     21 F         143.9058  131.3166  154.5772 F       1  UNL1       -0.1659
     22 F         142.1236  132.4066  154.2081 F       1  UNL1       -0.1659
     23 F         144.5840  132.8612  155.8635 F       1  UNL1       -0.1659
     24 O         139.4345  143.5984  164.9159 O.2     1  UNL1       -0.2751
     25 C         138.9764  142.1879  164.6908 C.2     1  UNL1        0.2229
     26 N         139.7337  141.0468  165.3027 N.am    1  UNL1       -0.2986
     27 H         139.4331  140.1210  165.1550 H       1  UNL1        0.1500
     28 C         140.9491  141.3161  166.1395 C.3     1  UNL1        0.1184
     29 C         140.8089  141.5364  167.6166 C.ar    1  UNL1        0.0177
     30 C         140.8608  140.3692  168.5572 C.ar    1  UNL1        0.0723
     31 N         140.7206  140.5895  170.0343 N.ar    1  UNL1       -0.3194
     32 C         140.5285  141.9770  170.5708 C.ar    1  UNL1        0.2682
     33 O         140.3883  142.1973  172.0479 O.2     1  UNL1       -0.2663
     34 C         140.4766  143.1443  169.6301 C.ar    1  UNL1        0.1132
     35 CL        140.2845  144.5319  170.1666 Cl      1  UNL1       -0.0773
     36 C         140.6168  142.9240  168.1530 C.ar    1  UNL1        0.0153
     37 H         140.7546  139.8234  170.6517 H       1  UNL1        0.1690
     38 C         142.3047  141.3652  165.4992 C.ar    1  UNL1       -0.0001
     39 C         142.9604  142.6875  165.2317 C.ar    1  UNL1       -0.0001
     40 C         144.3160  142.7366  164.5915 C.ar    1  UNL1        0.0294
     41 C         145.0159  141.4634  164.2186 C.ar    1  UNL1        0.1401
     42 F         146.3714  141.5124  163.5783 F       1  UNL1       -0.2042
     43 C         144.3602  140.1411  164.4860 C.ar    1  UNL1        0.0294
     44 C         143.0045  140.0919  165.1264 C.ar    1  UNL1       -0.0001
@<TRIPOS>BOND
     1    24    25    2
     2    25     1    1
     3     1     2    1
     4     2     3    1
     5     3     4    1
     6     4     5    1
     7     5     8    1
     8     8     9    1
     9     9    10   ar
    10    10    11   ar
    11    11    12   ar
    12    12    14    1
    13    14    15   ar
    14    15    16   ar
    15    16    17   ar
    16    17    20    1
    17    20    21    1
    18    20    22    1
    19    20    23    1
    20    17    18   ar
    21    18    19   ar
    22    12    13   ar
    23     5     6    1
    24     6     7    1
    25    25    26   am
    26    26    28    1
    27    28    38    1
    28    38    39   ar
    29    39    40   ar
    30    40    41   ar
    31    41    42    1
    32    41    43   ar
    33    43    44   ar
    34    28    29    1
    35    29    30   ar
    36    30    31   ar
    37    31    32   ar
    38    32    33    2
    39    32    34   ar
    40    34    35    1
    41    34    36   ar
    42     7     2    1
    43    44    38   ar
    44    36    29   ar
    45    13     9   ar
    46    19    14   ar
    47    26    27    1
    48    31    37    1
@<TRIPOS>MOLECULE
*****
 44 48 0 0 0
SMALL
GASTEIGER

@<TRIPOS>ATOM
      1 C         141.6551  138.4468  163.7695 C.3     1  UNL1        0.0851
      2 C         141.8474  138.4154  162.2822 C.3     1  UNL1        0.0118
      3 C         143.2024  138.1268  161.7071 C.3     1  UNL1        0.0179
      4 C         143.3947  138.0954  160.2198 C.3     1  UNL1        0.0724
      5 N         142.2320  138.3526  159.3077 N.3     1  UNL1       -0.2689
      6 C         140.8770  138.6412  159.8828 C.3     1  UNL1        0.0724
      7 C         140.6848  138.6726  161.3700 C.3     1  UNL1        0.0179
      8 C         142.4243  138.3212  157.8203 C.3     1  UNL1        0.1007
      9 C         142.2459  137.0359  157.0680 C.ar    1  UNL1        0.0129
     10 C         141.1080  136.7029  156.1491 C.ar    1  UNL1        0.0176
     11 C         141.3328  135.3191  155.6156 C.ar    1  UNL1        0.0799
     12 N         142.6096  134.7969  156.2048 N.ar    1  UNL1       -0.3038
     13 C         143.1739  135.8580  157.1024 C.ar    1  UNL1        0.0772
     14 C         143.2157  133.4501  155.9424 C.ar    1  UNL1        0.0640
     15 C         144.0962  132.8100  156.9743 C.ar    1  UNL1        0.0175
     16 C         144.7022  131.4632  156.7120 C.ar    1  UNL1        0.0053
     17 C         144.4278  130.7566  155.4177 C.ar    1  UNL1        0.0715
     18 C         143.5473  131.3967  154.3857 C.ar    1  UNL1        0.0053
     19 C         142.9413  132.7434  154.6481 C.ar    1  UNL1        0.0175
     20 C         145.0339  129.4098  155.1554 C.3     1  UNL1        0.4186
     21 F         145.6400  128.0630  154.8931 F       1  UNL1       -0.1659
     22 F         145.0286  129.6943  153.6826 F       1  UNL1       -0.1659
     23 F         145.0393  129.1253  156.6282 F       1  UNL1       -0.1659
     24 O         139.8800  139.8165  165.0822 O.2     1  UNL1       -0.2751
     25 C         141.2343  139.7184  164.4447 C.2     1  UNL1        0.2229
     26 N         142.1677  140.8921  164.4823 N.am    1  UNL1       -0.2986
     27 H         143.0565  140.8277  164.0639 H       1  UNL1        0.1500
     28 C         141.7469  142.1637  165.1574 C.3     1  UNL1        0.1184
     29 C         141.2452  143.3166  164.3395 C.ar    1  UNL1        0.0177
     30 C         142.1983  144.3775  163.8749 C.ar    1  UNL1        0.0723
     31 N         141.6966  145.5305  163.0569 N.ar    1  UNL1       -0.3194
     32 C         140.2418  145.6225  162.7036 C.ar    1  UNL1        0.2682
     33 O         139.7401  146.7755  161.8857 O.2     1  UNL1       -0.2663
     34 C         139.2886  144.5616  163.1683 C.ar    1  UNL1        0.1132
     35 CL        137.8337  144.6536  162.8150 Cl      1  UNL1       -0.0773
     36 C         139.7903  143.4087  163.9862 C.ar    1  UNL1        0.0153
     37 H         142.3222  146.2268  162.7520 H       1  UNL1        0.1690
     38 C         141.8277  142.2824  166.6505 C.ar    1  UNL1       -0.0001
     39 C         140.5836  142.5276  167.4519 C.ar    1  UNL1       -0.0001
     40 C         140.6645  142.6462  168.9450 C.ar    1  UNL1        0.0294
     41 C         141.9895  142.5197  169.6368 C.ar    1  UNL1        0.1401
     42 F         142.0703  142.6384  171.1298 F       1  UNL1       -0.2042
     43 C         143.2335  142.2745  168.8354 C.ar    1  UNL1        0.0294
     44 C         143.1527  142.1559  167.3423 C.ar    1  UNL1       -0.0001
@<TRIPOS>BOND
     1    24    25    2
     2    25     1    1
     3     1     2    1
     4     2     3    1
     5     3     4    1
     6     4     5    1
     7     5     8    1
     8     8     9    1
     9     9    10   ar
    10    10    11   ar
    11    11    12   ar
    12    12    14    1
    13    14    15   ar
    14    15    16   ar
    15    16    17   ar
    16    17    20    1
    17    20    21    1
    18    20    22    1
    19    20    23    1
    20    17    18   ar
    21    18    19   ar
    22    12    13   ar
    23     5     6    1
    24     6     7    1
    25    25    26   am
    26    26    28    1
    27    28    38    1
    28    38    39   ar
    29    39    40   ar
    30    40    41   ar
    31    41    42    1
    32    41    43   ar
    33    43    44   ar
    34    28    29    1
    35    29    30   ar
    36    30    31   ar
    37    31    32   ar
    38    32    33    2
    39    32    34   ar
    40    34    35    1
    41    34    36   ar
    42     7     2    1
    43    44    38   ar
    44    36    29   ar
    45    13     9   ar
    46    19    14   ar
    47    26    27    1
    48    31    37    1
@<TRIPOS>MOLECULE
*****
 44 48 0 0 0
SMALL
GASTEIGER

@<TRIPOS>ATOM
      1 C         140.9254  138.2712  163.8671 C.3     1  UNL1        0.0851
      2 C         141.3471  138.2571  162.4276 C.3     1  UNL1        0.0118
      3 C         142.7864  138.0325  162.0698 C.3     1  UNL1        0.0179
      4 C         143.2080  138.0185  160.6304 C.3     1  UNL1        0.0724
      5 N         142.1903  138.2291  159.5487 N.3     1  UNL1       -0.2689
      6 C         140.7510  138.4537  159.9064 C.3     1  UNL1        0.0724
      7 C         140.3294  138.4677  161.3459 C.3     1  UNL1        0.0179
      8 C         142.6120  138.2150  158.1092 C.3     1  UNL1        0.1007
      9 C         142.4107  136.9809  157.2807 C.ar    1  UNL1        0.0129
     10 C         141.2803  136.7347  156.3259 C.ar    1  UNL1        0.0176
     11 C         141.4754  135.3779  155.7167 C.ar    1  UNL1        0.0799
     12 N         142.7263  134.7856  156.2949 N.ar    1  UNL1       -0.3038
     13 C         143.3043  135.7763  157.2616 C.ar    1  UNL1        0.0772
     14 C         143.2987  133.4391  155.9646 C.ar    1  UNL1        0.0640
     15 C         142.8207  132.6981  154.7512 C.ar    1  UNL1        0.0175
     16 C         143.3931  131.3516  154.4208 C.ar    1  UNL1        0.0053
     17 C         144.4435  130.7460  155.3038 C.ar    1  UNL1        0.0715
     18 C         144.9216  131.4869  156.5173 C.ar    1  UNL1        0.0053
     19 C         144.3492  132.8335  156.8476 C.ar    1  UNL1        0.0175
     20 C         145.0159  129.3995  154.9735 C.3     1  UNL1        0.4186
     21 F         145.5883  128.0529  154.6432 F       1  UNL1       -0.1659
     22 F         145.0715  129.7789  153.5233 F       1  UNL1       -0.1659
     23 F         144.9603  129.0200  156.4237 F       1  UNL1       -0.1659
     24 O         139.2241  139.9697  164.8523 O.2     1  UNL1       -0.2751
     25 C         140.6397  139.5746  164.5522 C.2     1  UNL1        0.2229
     26 N         141.7696  140.4830  164.9373 N.am    1  UNL1       -0.2986
     27 H         142.6987  140.2237  164.7403 H       1  UNL1        0.1500
     28 C         141.4839  141.7864  165.6224 C.3     1  UNL1        0.1184
     29 C         141.5610  141.8806  167.1174 C.ar    1  UNL1        0.0177
     30 C         140.3281  141.6745  167.9465 C.ar    1  UNL1        0.0723
     31 N         140.4052  141.7687  169.4415 N.ar    1  UNL1       -0.3194
     32 C         141.7152  142.0689  170.1075 C.ar    1  UNL1        0.2682
     33 O         141.7923  142.1630  171.6026 O.2     1  UNL1       -0.2663
     34 C         142.9482  142.2749  169.2785 C.ar    1  UNL1        0.1132
     35 CL        144.2583  142.5752  169.9445 Cl      1  UNL1       -0.0773
     36 C         142.8711  142.1808  167.7834 C.ar    1  UNL1        0.0153
     37 H         139.5959  141.6334  169.9857 H       1  UNL1        0.1690
     38 C         141.1211  142.9957  164.8125 C.ar    1  UNL1       -0.0001
     39 C         142.1933  143.7842  164.1205 C.ar    1  UNL1       -0.0001
     40 C         141.8304  144.9935  163.3106 C.ar    1  UNL1        0.0294
     41 C         140.3955  145.4142  163.1926 C.ar    1  UNL1        0.1401
     42 F         140.0327  146.6235  162.3826 F       1  UNL1       -0.2042
     43 C         139.3234  144.6257  163.8845 C.ar    1  UNL1        0.0294
     44 C         139.6862  143.4164  164.6944 C.ar    1  UNL1       -0.0001
@<TRIPOS>BOND
     1    24    25    2
     2    25     1    1
     3     1     2    1
     4     2     3    1
     5     3     4    1
     6     4     5    1
     7     5     8    1
     8     8     9    1
     9     9    10   ar
    10    10    11   ar
    11    11    12   ar
    12    12    14    1
    13    14    15   ar
    14    15    16   ar
    15    16    17   ar
    16    17    20    1
    17    20    21    1
    18    20    22    1
    19    20    23    1
    20    17    18   ar
    21    18    19   ar
    22    12    13   ar
    23     5     6    1
    24     6     7    1
    25    25    26   am
    26    26    28    1
    27    28    38    1
    28    38    39   ar
    29    39    40   ar
    30    40    41   ar
    31    41    42    1
    32    41    43   ar
    33    43    44   ar
    34    28    29    1
    35    29    30   ar
    36    30    31   ar
    37    31    32   ar
    38    32    33    2
    39    32    34   ar
    40    34    35    1
    41    34    36   ar
    42     7     2    1
    43    44    38   ar
    44    36    29   ar
    45    13     9   ar
    46    19    14   ar
    47    26    27    1
    48    31    37    1
@<TRIPOS>MOLECULE
*****
 44 48 0 0 0
SMALL
GASTEIGER

@<TRIPOS>ATOM
      1 C         142.7797  138.4728  163.9278 C.3     1  UNL1        0.0851
      2 C         142.6742  138.4510  162.4317 C.3     1  UNL1        0.0118
      3 C         143.8491  138.8547  161.5910 C.3     1  UNL1        0.0179
      4 C         143.7436  138.8328  160.0949 C.3     1  UNL1        0.0724
      5 N         142.4633  138.4073  159.4395 N.3     1  UNL1       -0.2689
      6 C         141.2884  138.0037  160.2801 C.3     1  UNL1        0.0724
      7 C         141.3939  138.0255  161.7762 C.3     1  UNL1        0.0179
      8 C         142.3578  138.3855  157.9433 C.3     1  UNL1        0.1007
      9 C         142.9554  137.2504  157.1658 C.ar    1  UNL1        0.0129
     10 C         143.6281  137.3550  155.8292 C.ar    1  UNL1        0.0176
     11 C         144.0737  135.9808  155.4257 C.ar    1  UNL1        0.0799
     12 N         143.6763  135.0267  156.5130 N.ar    1  UNL1       -0.3038
     13 C         142.9852  135.8115  157.5884 C.ar    1  UNL1        0.0772
     14 C         143.9262  133.5478  156.5230 C.ar    1  UNL1        0.0640
     15 C         144.5884  132.9070  157.7066 C.ar    1  UNL1        0.0175
     16 C         144.8383  131.4281  157.7166 C.ar    1  UNL1        0.0053
     17 C         144.4261  130.5898  156.5431 C.ar    1  UNL1        0.0715
     18 C         143.7639  131.2305  155.3595 C.ar    1  UNL1        0.0053
     19 C         143.5140  132.7095  155.3494 C.ar    1  UNL1        0.0175
     20 C         144.6760  129.1108  156.5531 C.3     1  UNL1        0.4186
     21 F         144.9259  127.6318  156.5633 F       1  UNL1       -0.1659
     22 F         145.3679  129.2187  155.2267 F       1  UNL1       -0.1659
     23 F         143.9840  129.0029  157.8797 F       1  UNL1       -0.1659
     24 O         143.4152  140.6346  165.2212 O.2     1  UNL1       -0.2751
     25 C         142.3707  139.6978  164.6907 C.2     1  UNL1        0.2229
     26 N         140.9170  139.9862  164.9231 N.am    1  UNL1       -0.2986
     27 H         140.2315  139.3714  164.5750 H       1  UNL1        0.1500
     28 C         140.5080  141.2112  165.6860 C.3     1  UNL1        0.1184
     29 C         140.4903  141.1896  167.1858 C.ar    1  UNL1        0.0177
     30 C         139.7876  140.0810  167.9117 C.ar    1  UNL1        0.0723
     31 N         139.7699  140.0595  169.4114 N.ar    1  UNL1       -0.3194
     32 C         140.4549  141.1466  170.1852 C.ar    1  UNL1        0.2682
     33 O         140.4372  141.1251  171.6850 O.2     1  UNL1       -0.2663
     34 C         141.1576  142.2553  169.4593 C.ar    1  UNL1        0.1132
     35 CL        141.8427  143.3425  170.2331 Cl      1  UNL1       -0.0773
     36 C         141.1753  142.2768  167.9596 C.ar    1  UNL1        0.0153
     37 H         139.3087  139.3318  169.8879 H       1  UNL1        0.1690
     38 C         140.1167  142.4577  164.9492 C.ar    1  UNL1       -0.0001
     39 C         141.1733  143.3360  164.3472 C.ar    1  UNL1       -0.0001
     40 C         140.7820  144.5825  163.6103 C.ar    1  UNL1        0.0294
     41 C         139.3342  144.9508  163.4754 C.ar    1  UNL1        0.1401
     42 F         138.9429  146.1973  162.7385 F       1  UNL1       -0.2042
     43 C         138.2776  144.0726  164.0773 C.ar    1  UNL1        0.0294
     44 C         138.6689  142.8260  164.8142 C.ar    1  UNL1       -0.0001
@<TRIPOS>BOND
     1    24    25    2
     2    25     1    1
     3     1     2    1
     4     2     3    1
     5     3     4    1
     6     4     5    1
     7     5     8    1
     8     8     9    1
     9     9    10   ar
    10    10    11   ar
    11    11    12   ar
    12    12    14    1
    13    14    15   ar
    14    15    16   ar
    15    16    17   ar
    16    17    20    1
    17    20    21    1
    18    20    22    1
    19    20    23    1
    20    17    18   ar
    21    18    19   ar
    22    12    13   ar
    23     5     6    1
    24     6     7    1
    25    25    26   am
    26    26    28    1
    27    28    38    1
    28    38    39   ar
    29    39    40   ar
    30    40    41   ar
    31    41    42    1
    32    41    43   ar
    33    43    44   ar
    34    28    29    1
    35    29    30   ar
    36    30    31   ar
    37    31    32   ar
    38    32    33    2
    39    32    34   ar
    40    34    35    1
    41    34    36   ar
    42     7     2    1
    43    44    38   ar
    44    36    29   ar
    45    13     9   ar
    46    19    14   ar
    47    26    27    1
    48    31    37    1
@<TRIPOS>MOLECULE
*****
 44 48 0 0 0
SMALL
GASTEIGER

@<TRIPOS>ATOM
      1 C         138.3365  139.5993  163.6951 C.3     1  UNL1        0.0851
      2 C         138.5646  139.5577  162.2131 C.3     1  UNL1        0.0118
      3 C         139.4716  138.5191  161.6227 C.3     1  UNL1        0.0179
      4 C         139.6996  138.4775  160.1408 C.3     1  UNL1        0.0724
      5 N         139.0207  139.4746  159.2492 N.3     1  UNL1       -0.2689
      6 C         138.1138  140.5133  159.8396 C.3     1  UNL1        0.0724
      7 C         137.8857  140.5548  161.3215 C.3     1  UNL1        0.0179
      8 C         139.2488  139.4330  157.7672 C.3     1  UNL1        0.1007
      9 C         140.4157  138.6736  157.2089 C.ar    1  UNL1        0.0129
     10 C         141.7753  139.2359  156.9169 C.ar    1  UNL1        0.0176
     11 C         142.6277  138.1284  156.3722 C.ar    1  UNL1        0.0799
     12 N         141.7950  136.8815  156.3276 N.ar    1  UNL1       -0.3038
     13 C         140.4278  137.2185  156.8447 C.ar    1  UNL1        0.0772
     14 C         142.2495  135.5343  155.8498 C.ar    1  UNL1        0.0640
     15 C         143.3739  134.8303  156.5498 C.ar    1  UNL1        0.0175
     16 C         143.8284  133.4831  156.0719 C.ar    1  UNL1        0.0053
     17 C         143.1586  132.8399  154.8941 C.ar    1  UNL1        0.0715
     18 C         142.0342  133.5438  154.1940 C.ar    1  UNL1        0.0053
     19 C         141.5796  134.8910  154.6718 C.ar    1  UNL1        0.0175
     20 C         143.6132  131.4926  154.4163 C.3     1  UNL1        0.4186
     21 F         144.0677  130.1454  153.9383 F       1  UNL1       -0.1659
     22 F         144.0186  131.1333  155.8150 F       1  UNL1       -0.1659
     23 F         143.2077  131.8519  153.0174 F       1  UNL1       -0.1659
     24 O         138.2234  141.9028  164.8915 O.2     1  UNL1       -0.2751
     25 C         138.9883  140.6657  164.5246 C.2     1  UNL1        0.2229
     26 N         140.4050  140.4950  164.9872 N.am    1  UNL1       -0.2986
     27 H         140.9070  139.6830  164.7464 H       1  UNL1        0.1500
     28 C         141.0567  141.5613  165.8167 C.3     1  UNL1        0.1184
     29 C         140.8904  141.5584  167.3075 C.ar    1  UNL1        0.0177
     30 C         140.9453  140.2653  168.0657 C.ar    1  UNL1        0.0723
     31 N         140.7790  140.2624  169.5565 N.ar    1  UNL1       -0.3194
     32 C         140.5576  141.5525  170.2889 C.ar    1  UNL1        0.2682
     33 O         140.3913  141.5496  171.7797 O.2     1  UNL1       -0.2663
     34 C         140.5026  142.8455  169.5307 C.ar    1  UNL1        0.1132
     35 CL        140.2813  144.1357  170.2632 Cl      1  UNL1       -0.0773
     36 C         140.6690  142.8485  168.0400 C.ar    1  UNL1        0.0153
     37 H         140.8151  139.4137  170.0541 H       1  UNL1        0.1690
     38 C         141.8748  142.6306  165.1555 C.ar    1  UNL1       -0.0001
     39 C         143.3675  142.6326  165.3041 C.ar    1  UNL1       -0.0001
     40 C         144.1856  143.7018  164.6428 C.ar    1  UNL1        0.0294
     41 C         143.5111  144.7692  163.8329 C.ar    1  UNL1        0.1401
     42 F         144.3292  145.8384  163.1717 F       1  UNL1       -0.2042
     43 C         142.0186  144.7672  163.6843 C.ar    1  UNL1        0.0294
     44 C         141.2004  143.6979  164.3456 C.ar    1  UNL1       -0.0001
@<TRIPOS>BOND
     1    24    25    2
     2    25     1    1
     3     1     2    1
     4     2     3    1
     5     3     4    1
     6     4     5    1
     7     5     8    1
     8     8     9    1
     9     9    10   ar
    10    10    11   ar
    11    11    12   ar
    12    12    14    1
    13    14    15   ar
    14    15    16   ar
    15    16    17   ar
    16    17    20    1
    17    20    21    1
    18    20    22    1
    19    20    23    1
    20    17    18   ar
    21    18    19   ar
    22    12    13   ar
    23     5     6    1
    24     6     7    1
    25    25    26   am
    26    26    28    1
    27    28    38    1
    28    38    39   ar
    29    39    40   ar
    30    40    41   ar
    31    41    42    1
    32    41    43   ar
    33    43    44   ar
    34    28    29    1
    35    29    30   ar
    36    30    31   ar
    37    31    32   ar
    38    32    33    2
    39    32    34   ar
    40    34    35    1
    41    34    36   ar
    42     7     2    1
    43    44    38   ar
    44    36    29   ar
    45    13     9   ar
    46    19    14   ar
    47    26    27    1
    48    31    37    1
@<TRIPOS>MOLECULE
*****
 44 48 0 0 0
SMALL
GASTEIGER

@<TRIPOS>ATOM
      1 C         138.7586  144.1744  163.8142 C.3     1  UNL1        0.0851
      2 C         139.1883  144.1503  162.3772 C.3     1  UNL1        0.0118
      3 C         138.9054  142.9453  161.5300 C.3     1  UNL1        0.0179
      4 C         139.3350  142.9212  160.0931 C.3     1  UNL1        0.0724
      5 N         140.0475  144.1022  159.5034 N.3     1  UNL1       -0.2689
      6 C         140.3303  145.3072  160.3506 C.3     1  UNL1        0.0724
      7 C         139.9007  145.3313  161.7875 C.3     1  UNL1        0.0179
      8 C         140.4771  144.0780  158.0664 C.3     1  UNL1        0.1007
      9 C         139.8188  144.9872  157.0714 C.ar    1  UNL1        0.0129
     10 C         138.7523  144.5970  156.0915 C.ar    1  UNL1        0.0176
     11 C         138.3857  145.8148  155.2961 C.ar    1  UNL1        0.0799
     12 N         139.2257  146.9576  155.7844 N.ar    1  UNL1       -0.3038
     13 C         140.1114  146.4461  156.8816 C.ar    1  UNL1        0.0772
     14 C         139.1868  148.3648  155.2665 C.ar    1  UNL1        0.0640
     15 C         139.7747  148.6866  153.9246 C.ar    1  UNL1        0.0175
     16 C         139.7358  150.0938  153.4067 C.ar    1  UNL1        0.0053
     17 C         139.1091  151.1792  154.2306 C.ar    1  UNL1        0.0715
     18 C         138.5212  150.8574  155.5726 C.ar    1  UNL1        0.0053
     19 C         138.5601  149.4503  156.0905 C.ar    1  UNL1        0.0175
     20 C         139.0702  152.5864  153.7127 C.3     1  UNL1        0.4186
     21 F         139.0313  153.9936  153.1948 F       1  UNL1       -0.1659
     22 F         140.1733  152.2623  152.7493 F       1  UNL1       -0.1659
     23 F         137.9671  152.9105  154.6761 F       1  UNL1       -0.1659
     24 O         137.8680  141.9534  164.8259 O.2     1  UNL1       -0.2751
     25 C         138.9645  142.9662  164.6790 C.2     1  UNL1        0.2229
     26 N         140.2671  142.7709  165.3969 N.am    1  UNL1       -0.2986
     27 H         140.9868  143.4356  165.3004 H       1  UNL1        0.1500
     28 C         140.4730  141.5627  166.2616 C.3     1  UNL1        0.1184
     29 C         140.5083  141.7059  167.7543 C.ar    1  UNL1        0.0177
     30 C         139.4449  141.0634  168.5948 C.ar    1  UNL1        0.0723
     31 N         139.4802  141.2067  170.0875 N.ar    1  UNL1       -0.3194
     32 C         140.5788  141.9924  170.7398 C.ar    1  UNL1        0.2682
     33 O         140.6141  142.1357  172.2325 O.2     1  UNL1       -0.2663
     34 C         141.6422  142.6350  169.8993 C.ar    1  UNL1        0.1132
     35 CL        142.7409  143.4208  170.5516 Cl      1  UNL1       -0.0773
     36 C         141.6069  142.4917  168.4066 C.ar    1  UNL1        0.0153
     37 H         138.7823  140.7849  170.6391 H       1  UNL1        0.1690
     38 C         140.6436  140.2112  165.6336 C.ar    1  UNL1       -0.0001
     39 C         141.9441  139.8461  164.9812 C.ar    1  UNL1       -0.0001
     40 C         142.1147  138.4947  164.3532 C.ar    1  UNL1        0.0294
     41 C         140.9850  137.5083  164.3776 C.ar    1  UNL1        0.1401
     42 F         141.1556  136.1568  163.7496 F       1  UNL1       -0.2042
     43 C         139.6845  137.8733  165.0300 C.ar    1  UNL1        0.0294
     44 C         139.5139  139.2248  165.6580 C.ar    1  UNL1       -0.0001
@<TRIPOS>BOND
     1    24    25    2
     2    25     1    1
     3     1     2    1
     4     2     3    1
     5     3     4    1
     6     4     5    1
     7     5     8    1
     8     8     9    1
     9     9    10   ar
    10    10    11   ar
    11    11    12   ar
    12    12    14    1
    13    14    15   ar
    14    15    16   ar
    15    16    17   ar
    16    17    20    1
    17    20    21    1
    18    20    22    1
    19    20    23    1
    20    17    18   ar
    21    18    19   ar
    22    12    13   ar
    23     5     6    1
    24     6     7    1
    25    25    26   am
    26    26    28    1
    27    28    38    1
    28    38    39   ar
    29    39    40   ar
    30    40    41   ar
    31    41    42    1
    32    41    43   ar
    33    43    44   ar
    34    28    29    1
    35    29    30   ar
    36    30    31   ar
    37    31    32   ar
    38    32    33    2
    39    32    34   ar
    40    34    35    1
    41    34    36   ar
    42     7     2    1
    43    44    38   ar
    44    36    29   ar
    45    13     9   ar
    46    19    14   ar
    47    26    27    1
    48    31    37    1
@<TRIPOS>MOLECULE
*****
 44 48 0 0 0
SMALL
GASTEIGER

@<TRIPOS>ATOM
      1 C         138.6622  143.8921  163.6677 C.3     1  UNL1        0.0851
      2 C         139.1085  143.9142  162.2358 C.3     1  UNL1        0.0118
      3 C         139.9963  145.0186  161.7439 C.3     1  UNL1        0.0179
      4 C         140.4427  145.0406  160.3121 C.3     1  UNL1        0.0724
      5 N         140.0012  143.9582  159.3721 N.3     1  UNL1       -0.2689
      6 C         139.1134  142.8538  159.8640 C.3     1  UNL1        0.0724
      7 C         138.6671  142.8318  161.2959 C.3     1  UNL1        0.0179
      8 C         140.4476  143.9803  157.9402 C.3     1  UNL1        0.1007
      9 C         139.8086  144.9291  156.9699 C.ar    1  UNL1        0.0129
     10 C         138.8326  144.5627  155.8915 C.ar    1  UNL1        0.0176
     11 C         138.4541  145.8180  155.1628 C.ar    1  UNL1        0.0799
     12 N         139.1963  146.9603  155.7909 N.ar    1  UNL1       -0.3038
     13 C         140.0334  146.4109  156.9078 C.ar    1  UNL1        0.0772
     14 C         139.1155  148.3992  155.3752 C.ar    1  UNL1        0.0640
     15 C         138.4686  149.4060  156.2794 C.ar    1  UNL1        0.0175
     16 C         138.3878  150.8449  155.8637 C.ar    1  UNL1        0.0053
     17 C         138.9539  151.2771  154.5436 C.ar    1  UNL1        0.0715
     18 C         139.6009  150.2704  153.6393 C.ar    1  UNL1        0.0053
     19 C         139.6817  148.8314  154.0550 C.ar    1  UNL1        0.0175
     20 C         138.8731  152.7161  154.1279 C.3     1  UNL1        0.4186
     21 F         138.7924  154.1550  153.7120 F       1  UNL1       -0.1659
     22 F         138.3336  153.0765  155.4802 F       1  UNL1       -0.1659
     23 F         139.4127  152.3556  152.7754 F       1  UNL1       -0.1659
     24 O         140.0709  143.7960  165.8486 O.2     1  UNL1       -0.2751
     25 C         139.4340  143.1010  164.6818 C.2     1  UNL1        0.2229
     26 N         139.5690  141.6148  164.5292 N.am    1  UNL1       -0.2986
     27 H         139.1510  141.1587  163.7634 H       1  UNL1        0.1500
     28 C         140.3408  140.8238  165.5433 C.3     1  UNL1        0.1184
     29 C         139.7232  140.5023  166.8719 C.ar    1  UNL1        0.0177
     30 C         138.6739  139.4352  166.9727 C.ar    1  UNL1        0.0723
     31 N         138.0563  139.1137  168.3013 N.ar    1  UNL1       -0.3194
     32 C         138.4881  139.8593  169.5291 C.ar    1  UNL1        0.2682
     33 O         137.8705  139.5378  170.8578 O.2     1  UNL1       -0.2663
     34 C         139.5375  140.9263  169.4284 C.ar    1  UNL1        0.1132
     35 CL        139.9693  141.6719  170.6563 Cl      1  UNL1       -0.0773
     36 C         140.1550  141.2478  168.0997 C.ar    1  UNL1        0.0153
     37 H         137.3676  138.4134  168.3674 H       1  UNL1        0.1690
     38 C         141.7302  140.3542  165.2287 C.ar    1  UNL1       -0.0001
     39 C         142.2750  139.1249  165.8937 C.ar    1  UNL1       -0.0001
     40 C         143.6644  138.6553  165.5792 C.ar    1  UNL1        0.0294
     41 C         144.5091  139.4150  164.5997 C.ar    1  UNL1        0.1401
     42 F         145.8985  138.9454  164.2851 F       1  UNL1       -0.2042
     43 C         143.9644  140.6442  163.9347 C.ar    1  UNL1        0.0294
     44 C         142.5749  141.1139  164.2492 C.ar    1  UNL1       -0.0001
@<TRIPOS>BOND
     1    24    25    2
     2    25     1    1
     3     1     2    1
     4     2     3    1
     5     3     4    1
     6     4     5    1
     7     5     8    1
     8     8     9    1
     9     9    10   ar
    10    10    11   ar
    11    11    12   ar
    12    12    14    1
    13    14    15   ar
    14    15    16   ar
    15    16    17   ar
    16    17    20    1
    17    20    21    1
    18    20    22    1
    19    20    23    1
    20    17    18   ar
    21    18    19   ar
    22    12    13   ar
    23     5     6    1
    24     6     7    1
    25    25    26   am
    26    26    28    1
    27    28    38    1
    28    38    39   ar
    29    39    40   ar
    30    40    41   ar
    31    41    42    1
    32    41    43   ar
    33    43    44   ar
    34    28    29    1
    35    29    30   ar
    36    30    31   ar
    37    31    32   ar
    38    32    33    2
    39    32    34   ar
    40    34    35    1
    41    34    36   ar
    42     7     2    1
    43    44    38   ar
    44    36    29   ar
    45    13     9   ar
    46    19    14   ar
    47    26    27    1
    48    31    37    1
@<TRIPOS>MOLECULE
*****
 44 48 0 0 0
SMALL
GASTEIGER

@<TRIPOS>ATOM
      1 C         142.4803  138.5330  164.0000 C.3     1  UNL1        0.0851
      2 C         142.2479  138.3995  162.5241 C.3     1  UNL1        0.0118
      3 C         140.8693  138.5828  161.9623 C.3     1  UNL1        0.0179
      4 C         140.6370  138.4494  160.4865 C.3     1  UNL1        0.0724
      5 N         141.7833  138.1325  159.5724 N.3     1  UNL1       -0.2689
      6 C         143.1620  137.9492  160.1342 C.3     1  UNL1        0.0724
      7 C         143.3943  138.0827  161.6101 C.3     1  UNL1        0.0179
      8 C         141.5509  137.9991  158.0965 C.3     1  UNL1        0.1007
      9 C         142.6816  138.2209  157.1362 C.ar    1  UNL1        0.0129
     10 C         143.3022  137.1821  156.2498 C.ar    1  UNL1        0.0176
     11 C         144.3944  137.8397  155.4594 C.ar    1  UNL1        0.0799
     12 N         144.4488  139.2850  155.8573 N.ar    1  UNL1       -0.3038
     13 C         143.3902  139.5206  156.8936 C.ar    1  UNL1        0.0772
     14 C         145.3955  140.3140  155.3142 C.ar    1  UNL1        0.0640
     15 C         146.0372  141.3051  156.2392 C.ar    1  UNL1        0.0175
     16 C         146.9839  142.3340  155.6961 C.ar    1  UNL1        0.0053
     17 C         147.2889  142.3719  154.2280 C.ar    1  UNL1        0.0715
     18 C         146.6472  141.3808  153.3029 C.ar    1  UNL1        0.0053
     19 C         145.7005  140.3518  153.8460 C.ar    1  UNL1        0.0175
     20 C         148.2356  143.4009  153.6850 C.3     1  UNL1        0.4186
     21 F         149.1823  144.4299  153.1419 F       1  UNL1       -0.1659
     22 F         149.0703  142.3125  153.0779 F       1  UNL1       -0.1659
     23 F         147.4009  144.4894  154.2921 F       1  UNL1       -0.1659
     24 O         143.4480  140.7487  164.9508 O.2     1  UNL1       -0.2751
     25 C         142.2741  139.8565  164.6751 C.2     1  UNL1        0.2229
     26 N         140.8941  140.2879  165.0744 N.am    1  UNL1       -0.2986
     27 H         140.1236  139.7023  164.8934 H       1  UNL1        0.1500
     28 C         140.6879  141.6114  165.7494 C.3     1  UNL1        0.1184
     29 C         140.6695  141.6948  167.2470 C.ar    1  UNL1        0.0177
     30 C         140.8044  140.4475  168.0693 C.ar    1  UNL1        0.0723
     31 N         140.7860  140.5309  169.5668 N.ar    1  UNL1       -0.3194
     32 C         140.6327  141.8614  170.2421 C.ar    1  UNL1        0.2682
     33 O         140.6143  141.9448  171.7397 O.2     1  UNL1       -0.2663
     34 C         140.4977  143.1087  169.4198 C.ar    1  UNL1        0.1132
     35 CL        140.3443  144.4393  170.0951 Cl      1  UNL1       -0.0773
     36 C         140.5161  143.0253  167.9223 C.ar    1  UNL1        0.0153
     37 H         140.8746  139.7123  170.1065 H       1  UNL1        0.1690
     38 C         140.5001  142.8516  164.9269 C.ar    1  UNL1       -0.0001
     39 C         141.6916  143.6600  164.5060 C.ar    1  UNL1       -0.0001
     40 C         141.5038  144.9002  163.6835 C.ar    1  UNL1        0.0294
     41 C         140.1247  145.3321  163.2817 C.ar    1  UNL1        0.1401
     42 F         139.9369  146.5723  162.4592 F       1  UNL1       -0.2042
     43 C         138.9333  144.5237  163.7025 C.ar    1  UNL1        0.0294
     44 C         139.1210  143.2835  164.5251 C.ar    1  UNL1       -0.0001
@<TRIPOS>BOND
     1    24    25    2
     2    25     1    1
     3     1     2    1
     4     2     3    1
     5     3     4    1
     6     4     5    1
     7     5     8    1
     8     8     9    1
     9     9    10   ar
    10    10    11   ar
    11    11    12   ar
    12    12    14    1
    13    14    15   ar
    14    15    16   ar
    15    16    17   ar
    16    17    20    1
    17    20    21    1
    18    20    22    1
    19    20    23    1
    20    17    18   ar
    21    18    19   ar
    22    12    13   ar
    23     5     6    1
    24     6     7    1
    25    25    26   am
    26    26    28    1
    27    28    38    1
    28    38    39   ar
    29    39    40   ar
    30    40    41   ar
    31    41    42    1
    32    41    43   ar
    33    43    44   ar
    34    28    29    1
    35    29    30   ar
    36    30    31   ar
    37    31    32   ar
    38    32    33    2
    39    32    34   ar
    40    34    35    1
    41    34    36   ar
    42     7     2    1
    43    44    38   ar
    44    36    29   ar
    45    13     9   ar
    46    19    14   ar
    47    26    27    1
    48    31    37    1
