@<TRIPOS>MOLECULE
*****
 24 28 0 0 0
SMALL
GASTEIGER

@<TRIPOS>ATOM
      1 C         142.6102  138.2019  162.8028 C.ar    1  UNL1        0.0111
      2 C         142.7525  139.0601  164.0248 C.ar    1  UNL1       -0.0003
      3 C         141.4680  138.9855  164.7957 C.ar    1  UNL1       -0.0052
      4 C         140.5318  138.0812  164.0502 C.ar    1  UNL1        0.0057
      5 S         141.2377  137.5969  162.8186 S.2     1  UNL1       -0.0955
      6 C         139.1574  137.8155  164.5893 C.3     1  UNL1        0.0500
      7 C         138.7193  138.4542  165.8739 C.3     1  UNL1        0.0778
      8 N         139.6555  139.3586  166.6194 N.3     1  UNL1       -0.2659
      9 C         139.2173  139.9972  167.9039 C.3     1  UNL1        0.0991
     10 C         140.1535  140.9016  168.6494 C.ar    1  UNL1       -0.0100
     11 C         139.7153  141.5403  169.9340 C.ar    1  UNL1       -0.0032
     12 C         140.6515  142.4446  170.6794 C.ar    1  UNL1       -0.0003
     13 C         142.0258  142.7102  170.1403 C.ar    1  UNL1       -0.0003
     14 C         142.4640  142.0716  168.8558 C.ar    1  UNL1       -0.0045
     15 C         141.5278  141.1672  168.1103 C.ar    1  UNL1       -0.0231
     16 C         141.9660  140.5285  166.8257 C.3     1  UNL1        0.0465
     17 C         141.0298  139.6242  166.0803 C.3     1  UNL1        0.0849
     18 C         143.6567  137.9865  161.7499 C.3     1  UNL1        0.0592
     19 C         143.0143  139.5614  157.5837 C.ar    1  UNL1       -0.0000
     20 C         143.6504  140.4334  158.6254 C.ar    1  UNL1       -0.0003
     21 C         143.8645  139.9084  160.0141 C.ar    1  UNL1       -0.0039
     22 C         143.4426  138.5115  160.3612 C.ar    1  UNL1       -0.0173
     23 C         142.8065  137.6395  159.3196 C.ar    1  UNL1       -0.0039
     24 C         142.5924  138.1644  157.9308 C.ar    1  UNL1       -0.0003
@<TRIPOS>BOND
     1    19    20   ar
     2    20    21   ar
     3    21    22   ar
     4    22    18    1
     5    18     1    1
     6     1     2   ar
     7     2     3   ar
     8     3     4   ar
     9     4     5   ar
    10     4     6    1
    11     6     7    1
    12     7     8    1
    13     8     9    1
    14     9    10    1
    15    10    11   ar
    16    11    12   ar
    17    12    13   ar
    18    13    14   ar
    19    14    15   ar
    20    15    16    1
    21    16    17    1
    22    22    23   ar
    23    23    24   ar
    24    24    19   ar
    25     5     1   ar
    26    17     8    1
    27    17     3    1
    28    15    10   ar
@<TRIPOS>MOLECULE
*****
 24 28 0 0 0
SMALL
GASTEIGER

@<TRIPOS>ATOM
      1 C         142.8105  139.5110  166.7751 C.ar    1  UNL1        0.0111
      2 C         142.2280  140.6940  166.0601 C.ar    1  UNL1       -0.0003
      3 C         142.6630  140.6291  164.6260 C.ar    1  UNL1       -0.0052
      4 C         143.5143  139.4060  164.4548 C.ar    1  UNL1        0.0057
      5 S         143.6054  138.7150  165.7830 S.2     1  UNL1       -0.0955
      6 C         144.0965  139.0795  163.1115 C.3     1  UNL1        0.0500
      7 C         143.8274  139.9761  161.9394 C.3     1  UNL1        0.0778
      8 N         142.9761  141.1993  162.1107 N.3     1  UNL1       -0.2659
      9 C         142.7071  142.0958  160.9387 C.3     1  UNL1        0.0991
     10 C         141.8558  143.3190  161.1099 C.ar    1  UNL1       -0.0100
     11 C         141.5867  144.2156  159.9379 C.ar    1  UNL1       -0.0032
     12 C         140.7355  145.4387  160.1092 C.ar    1  UNL1       -0.0003
     13 C         140.1533  145.7652  161.4525 C.ar    1  UNL1       -0.0003
     14 C         140.4223  144.8686  162.6245 C.ar    1  UNL1       -0.0045
     15 C         141.2736  143.6455  162.4532 C.ar    1  UNL1       -0.0231
     16 C         141.5427  142.7488  163.6253 C.3     1  UNL1        0.0465
     17 C         142.3939  141.5258  163.4540 C.3     1  UNL1        0.0849
     18 C         142.6297  139.1819  168.2274 C.3     1  UNL1        0.0592
     19 C         140.4626  142.0521  170.9322 C.ar    1  UNL1       -0.0000
     20 C         139.6873  141.1721  169.9969 C.ar    1  UNL1       -0.0003
     21 C         140.4096  140.2154  169.0953 C.ar    1  UNL1       -0.0039
     22 C         141.9073  140.1386  169.1290 C.ar    1  UNL1       -0.0173
     23 C         142.6826  141.0185  170.0642 C.ar    1  UNL1       -0.0039
     24 C         141.9602  141.9752  170.9658 C.ar    1  UNL1       -0.0003
@<TRIPOS>BOND
     1    19    20   ar
     2    20    21   ar
     3    21    22   ar
     4    22    18    1
     5    18     1    1
     6     1     2   ar
     7     2     3   ar
     8     3     4   ar
     9     4     5   ar
    10     4     6    1
    11     6     7    1
    12     7     8    1
    13     8     9    1
    14     9    10    1
    15    10    11   ar
    16    11    12   ar
    17    12    13   ar
    18    13    14   ar
    19    14    15   ar
    20    15    16    1
    21    16    17    1
    22    22    23   ar
    23    23    24   ar
    24    24    19   ar
    25     5     1   ar
    26    17     8    1
    27    17     3    1
    28    15    10   ar
@<TRIPOS>MOLECULE
*****
 24 28 0 0 0
SMALL
GASTEIGER

@<TRIPOS>ATOM
      1 C         139.3967  140.0337  166.6441 C.ar    1  UNL1        0.0111
      2 C         139.6694  141.1549  165.6857 C.ar    1  UNL1       -0.0003
      3 C         139.3608  140.6667  164.3014 C.ar    1  UNL1       -0.0052
      4 C         138.8974  139.2438  164.4042 C.ar    1  UNL1        0.0057
      5 S         138.9196  138.8526  165.8521 S.2     1  UNL1       -0.0955
      6 C         138.5151  138.4882  163.1661 C.3     1  UNL1        0.0500
      7 C         138.5962  139.1555  161.8252 C.3     1  UNL1        0.0778
      8 N         139.0596  140.5784  161.7223 N.3     1  UNL1       -0.2659
      9 C         139.1407  141.2457  160.3814 C.3     1  UNL1        0.0991
     10 C         139.6041  142.6687  160.2786 C.ar    1  UNL1       -0.0100
     11 C         139.6852  143.3360  158.9376 C.ar    1  UNL1       -0.0032
     12 C         140.1486  144.7589  158.8349 C.ar    1  UNL1       -0.0003
     13 C         140.5309  145.5145  160.0730 C.ar    1  UNL1       -0.0003
     14 C         140.4498  144.8472  161.4139 C.ar    1  UNL1       -0.0045
     15 C         139.9864  143.4243  161.5167 C.ar    1  UNL1       -0.0231
     16 C         139.9053  142.7569  162.8576 C.3     1  UNL1        0.0465
     17 C         139.4419  141.3340  162.9604 C.3     1  UNL1        0.0849
     18 C         139.5706  140.0847  168.1332 C.3     1  UNL1        0.0592
     19 C         142.7621  142.6938  169.9377 C.ar    1  UNL1       -0.0000
     20 C         141.3632  143.2145  169.7885 C.ar    1  UNL1       -0.0003
     21 C         140.2994  142.3448  169.1870 C.ar    1  UNL1       -0.0039
     22 C         140.6344  140.9544  168.7347 C.ar    1  UNL1       -0.0173
     23 C         142.0331  140.4337  168.8839 C.ar    1  UNL1       -0.0039
     24 C         143.0970  141.3034  169.4854 C.ar    1  UNL1       -0.0003
@<TRIPOS>BOND
     1    19    20   ar
     2    20    21   ar
     3    21    22   ar
     4    22    18    1
     5    18     1    1
     6     1     2   ar
     7     2     3   ar
     8     3     4   ar
     9     4     5   ar
    10     4     6    1
    11     6     7    1
    12     7     8    1
    13     8     9    1
    14     9    10    1
    15    10    11   ar
    16    11    12   ar
    17    12    13   ar
    18    13    14   ar
    19    14    15   ar
    20    15    16    1
    21    16    17    1
    22    22    23   ar
    23    23    24   ar
    24    24    19   ar
    25     5     1   ar
    26    17     8    1
    27    17     3    1
    28    15    10   ar
@<TRIPOS>MOLECULE
*****
 24 28 0 0 0
SMALL
GASTEIGER

@<TRIPOS>ATOM
      1 C         139.7272  144.1650  162.6377 C.ar    1  UNL1        0.0111
      2 C         140.5208  143.8835  163.8791 C.ar    1  UNL1       -0.0003
      3 C         139.9299  142.6752  164.5429 C.ar    1  UNL1       -0.0052
      4 C         138.7711  142.2098  163.7119 C.ar    1  UNL1        0.0057
      5 S         138.6458  143.1306  162.5344 S.2     1  UNL1       -0.0955
      6 C         137.9797  141.0078  164.1348 C.3     1  UNL1        0.0500
      7 C         138.3471  140.2711  165.3887 C.3     1  UNL1        0.0778
      8 N         139.5060  140.7364  166.2197 N.3     1  UNL1       -0.2659
      9 C         139.8734  139.9997  167.4736 C.3     1  UNL1        0.0991
     10 C         141.0323  140.4650  168.3047 C.ar    1  UNL1       -0.0100
     11 C         141.3997  139.7283  169.5585 C.ar    1  UNL1       -0.0032
     12 C         142.5585  140.1936  170.3895 C.ar    1  UNL1       -0.0003
     13 C         143.3499  141.3956  169.9666 C.ar    1  UNL1       -0.0003
     14 C         142.9825  142.1324  168.7128 C.ar    1  UNL1       -0.0045
     15 C         141.8237  141.6670  167.8818 C.ar    1  UNL1       -0.0231
     16 C         141.4562  142.4038  166.6278 C.3     1  UNL1        0.0465
     17 C         140.2974  141.9384  165.7969 C.3     1  UNL1        0.0849
     18 C         139.9720  145.2843  161.6696 C.3     1  UNL1        0.0592
     19 C         142.2251  144.5059  157.8529 C.ar    1  UNL1       -0.0000
     20 C         142.5740  143.7458  159.0982 C.ar    1  UNL1       -0.0003
     21 C         141.8230  144.0053  160.3704 C.ar    1  UNL1       -0.0039
     22 C         140.7230  145.0249  160.3974 C.ar    1  UNL1       -0.0173
     23 C         140.3742  145.7849  159.1522 C.ar    1  UNL1       -0.0039
     24 C         141.1252  145.5255  157.8799 C.ar    1  UNL1       -0.0003
@<TRIPOS>BOND
     1    19    20   ar
     2    20    21   ar
     3    21    22   ar
     4    22    18    1
     5    18     1    1
     6     1     2   ar
     7     2     3   ar
     8     3     4   ar
     9     4     5   ar
    10     4     6    1
    11     6     7    1
    12     7     8    1
    13     8     9    1
    14     9    10    1
    15    10    11   ar
    16    11    12   ar
    17    12    13   ar
    18    13    14   ar
    19    14    15   ar
    20    15    16    1
    21    16    17    1
    22    22    23   ar
    23    23    24   ar
    24    24    19   ar
    25     5     1   ar
    26    17     8    1
    27    17     3    1
    28    15    10   ar
@<TRIPOS>MOLECULE
*****
 24 28 0 0 0
SMALL
GASTEIGER

@<TRIPOS>ATOM
      1 C         139.4740  139.6161  166.6075 C.ar    1  UNL1        0.0111
      2 C         140.4401  140.2745  165.6677 C.ar    1  UNL1       -0.0003
      3 C         140.2849  139.6345  164.3201 C.ar    1  UNL1       -0.0052
      4 C         139.2230  138.5806  164.4269 C.ar    1  UNL1        0.0057
      5 S         138.7218  138.5692  165.8406 S.2     1  UNL1       -0.0955
      6 C         138.8495  137.7674  163.2230 C.3     1  UNL1        0.0500
      7 C         139.5380  138.0082  161.9123 C.3     1  UNL1        0.0778
      8 N         140.6000  139.0622  161.8054 N.3     1  UNL1       -0.2659
      9 C         141.2886  139.3029  160.4948 C.3     1  UNL1        0.0991
     10 C         142.3506  140.3569  160.3879 C.ar    1  UNL1       -0.0100
     11 C         143.0391  140.5977  159.0772 C.ar    1  UNL1       -0.0032
     12 C         144.1010  141.6516  158.9704 C.ar    1  UNL1       -0.0003
     13 C         144.4745  142.4648  160.1743 C.ar    1  UNL1       -0.0003
     14 C         143.7859  142.2240  161.4850 C.ar    1  UNL1       -0.0045
     15 C         142.7240  141.1701  161.5918 C.ar    1  UNL1       -0.0231
     16 C         142.0354  140.9293  162.9025 C.3     1  UNL1        0.0465
     17 C         140.9735  139.8753  163.0093 C.3     1  UNL1        0.0849
     18 C         139.2921  139.9466  168.0593 C.3     1  UNL1        0.0592
     19 C         142.5545  142.0806  170.3071 C.ar    1  UNL1       -0.0000
     20 C         142.6247  140.5946  170.1145 C.ar    1  UNL1       -0.0003
     21 C         141.5372  139.8833  169.3652 C.ar    1  UNL1       -0.0039
     22 C         140.3795  140.6579  168.8086 C.ar    1  UNL1       -0.0173
     23 C         140.3094  142.1438  169.0012 C.ar    1  UNL1       -0.0039
     24 C         141.3969  142.8552  169.7505 C.ar    1  UNL1       -0.0003
@<TRIPOS>BOND
     1    19    20   ar
     2    20    21   ar
     3    21    22   ar
     4    22    18    1
     5    18     1    1
     6     1     2   ar
     7     2     3   ar
     8     3     4   ar
     9     4     5   ar
    10     4     6    1
    11     6     7    1
    12     7     8    1
    13     8     9    1
    14     9    10    1
    15    10    11   ar
    16    11    12   ar
    17    12    13   ar
    18    13    14   ar
    19    14    15   ar
    20    15    16    1
    21    16    17    1
    22    22    23   ar
    23    23    24   ar
    24    24    19   ar
    25     5     1   ar
    26    17     8    1
    27    17     3    1
    28    15    10   ar
@<TRIPOS>MOLECULE
*****
 24 28 0 0 0
SMALL
GASTEIGER

@<TRIPOS>ATOM
      1 C         138.8356  139.6017  162.6727 C.ar    1  UNL1        0.0111
      2 C         139.0615  140.4399  163.8959 C.ar    1  UNL1       -0.0003
      3 C         140.2192  139.8564  164.6503 C.ar    1  UNL1       -0.0052
      4 C         140.7088  138.6575  163.8934 C.ar    1  UNL1        0.0057
      5 S         139.8537  138.5001  162.6711 S.2     1  UNL1       -0.0955
      6 C         141.8700  137.8641  164.4149 C.3     1  UNL1        0.0500
      7 C         142.5417  138.2695  165.6933 C.3     1  UNL1        0.0778
      8 N         142.0521  139.4684  166.4503 N.3     1  UNL1       -0.2659
      9 C         142.7238  139.8738  167.7288 C.3     1  UNL1        0.0991
     10 C         142.2342  141.0727  168.4858 C.ar    1  UNL1       -0.0100
     11 C         142.9058  141.4781  169.7643 C.ar    1  UNL1       -0.0032
     12 C         142.4162  142.6769  170.5212 C.ar    1  UNL1       -0.0003
     13 C         141.2550  143.4704  169.9997 C.ar    1  UNL1       -0.0003
     14 C         140.5834  143.0650  168.7213 C.ar    1  UNL1       -0.0045
     15 C         141.0729  141.8661  167.9643 C.ar    1  UNL1       -0.0231
     16 C         140.4013  141.4607  166.6858 C.3     1  UNL1        0.0465
     17 C         140.8909  140.2618  165.9288 C.3     1  UNL1        0.0849
     18 C         137.7773  139.8258  161.6334 C.3     1  UNL1        0.0592
     19 C         138.6462  142.4193  158.0601 C.ar    1  UNL1       -0.0000
     20 C         138.9207  142.9313  159.4431 C.ar    1  UNL1       -0.0003
     21 C         138.6311  142.0668  160.6341 C.ar    1  UNL1       -0.0039
     22 C         138.0669  140.6903  160.4423 C.ar    1  UNL1       -0.0173
     23 C         137.7924  140.1782  159.0595 C.ar    1  UNL1       -0.0039
     24 C         138.0820  141.0427  157.8683 C.ar    1  UNL1       -0.0003
@<TRIPOS>BOND
     1    19    20   ar
     2    20    21   ar
     3    21    22   ar
     4    22    18    1
     5    18     1    1
     6     1     2   ar
     7     2     3   ar
     8     3     4   ar
     9     4     5   ar
    10     4     6    1
    11     6     7    1
    12     7     8    1
    13     8     9    1
    14     9    10    1
    15    10    11   ar
    16    11    12   ar
    17    12    13   ar
    18    13    14   ar
    19    14    15   ar
    20    15    16    1
    21    16    17    1
    22    22    23   ar
    23    23    24   ar
    24    24    19   ar
    25     5     1   ar
    26    17     8    1
    27    17     3    1
    28    15    10   ar
@<TRIPOS>MOLECULE
*****
 24 28 0 0 0
SMALL
GASTEIGER

@<TRIPOS>ATOM
      1 C         141.5036  141.7130  165.9717 C.ar    1  UNL1        0.0111
      2 C         141.9596  141.8882  164.5535 C.ar    1  UNL1       -0.0003
      3 C         141.1641  143.0050  163.9455 C.ar    1  UNL1       -0.0052
      4 C         140.2165  143.5201  164.9878 C.ar    1  UNL1        0.0057
      5 S         140.4263  142.7216  166.2402 S.2     1  UNL1       -0.0955
      6 C         139.2849  144.6497  164.6620 C.3     1  UNL1        0.0500
      7 C         139.3010  145.2642  163.2938 C.3     1  UNL1        0.0778
      8 N         140.2486  144.7491  162.2513 N.3     1  UNL1       -0.2659
      9 C         140.2647  145.3637  160.8831 C.3     1  UNL1        0.0991
     10 C         141.2124  144.8486  159.8406 C.ar    1  UNL1       -0.0100
     11 C         141.2285  145.4631  158.4724 C.ar    1  UNL1       -0.0032
     12 C         142.1761  144.9480  157.4300 C.ar    1  UNL1       -0.0003
     13 C         143.1077  143.8184  157.7559 C.ar    1  UNL1       -0.0003
     14 C         143.0916  143.2039  159.1241 C.ar    1  UNL1       -0.0045
     15 C         142.1440  143.7190  160.1665 C.ar    1  UNL1       -0.0231
     16 C         142.1278  143.1044  161.5348 C.3     1  UNL1        0.0465
     17 C         141.1802  143.6195  162.5772 C.3     1  UNL1        0.0849
     18 C         142.0322  140.7060  166.9498 C.3     1  UNL1        0.0592
     19 C         141.0072  141.0583  171.3173 C.ar    1  UNL1       -0.0000
     20 C         140.2273  140.1275  170.4366 C.ar    1  UNL1       -0.0003
     21 C         140.5690  140.0101  168.9808 C.ar    1  UNL1       -0.0039
     22 C         141.6905  140.8234  168.4056 C.ar    1  UNL1       -0.0173
     23 C         142.4703  141.7541  169.2863 C.ar    1  UNL1       -0.0039
     24 C         142.1287  141.8716  170.7422 C.ar    1  UNL1       -0.0003
@<TRIPOS>BOND
     1    19    20   ar
     2    20    21   ar
     3    21    22   ar
     4    22    18    1
     5    18     1    1
     6     1     2   ar
     7     2     3   ar
     8     3     4   ar
     9     4     5   ar
    10     4     6    1
    11     6     7    1
    12     7     8    1
    13     8     9    1
    14     9    10    1
    15    10    11   ar
    16    11    12   ar
    17    12    13   ar
    18    13    14   ar
    19    14    15   ar
    20    15    16    1
    21    16    17    1
    22    22    23   ar
    23    23    24   ar
    24    24    19   ar
    25     5     1   ar
    26    17     8    1
    27    17     3    1
    28    15    10   ar
@<TRIPOS>MOLECULE
*****
 24 28 0 0 0
SMALL
GASTEIGER

@<TRIPOS>ATOM
      1 C         143.5999  139.0986  161.8014 C.ar    1  UNL1        0.0111
      2 C         143.2335  138.9860  163.2516 C.ar    1  UNL1       -0.0003
      3 C         143.4995  140.3116  163.9011 C.ar    1  UNL1       -0.0052
      4 C         144.0303  141.2435  162.8524 C.ar    1  UNL1        0.0057
      5 S         144.0924  140.4938  161.5547 S.2     1  UNL1       -0.0955
      6 C         144.3886  142.6543  163.2147 C.3     1  UNL1        0.0500
      7 C         144.2160  143.1333  164.6256 C.3     1  UNL1        0.0778
      8 N         143.6852  142.2013  165.6744 N.3     1  UNL1       -0.2659
      9 C         143.5126  142.6803  167.0854 C.3     1  UNL1        0.0991
     10 C         142.9818  141.7484  168.1341 C.ar    1  UNL1       -0.0100
     11 C         142.8093  142.2273  169.5451 C.ar    1  UNL1       -0.0032
     12 C         142.2784  141.2954  170.5937 C.ar    1  UNL1       -0.0003
     13 C         141.9202  139.8846  170.2315 C.ar    1  UNL1       -0.0003
     14 C         142.0927  139.4056  168.8205 C.ar    1  UNL1       -0.0045
     15 C         142.6235  140.3375  167.7718 C.ar    1  UNL1       -0.0231
     16 C         142.7961  139.8586  166.3608 C.3     1  UNL1        0.0465
     17 C         143.3269  140.7905  165.3121 C.3     1  UNL1        0.0849
     18 C         143.4927  138.0075  160.7776 C.3     1  UNL1        0.0592
     19 C         140.2357  138.1450  157.6755 C.ar    1  UNL1       -0.0000
     20 C         141.6042  137.6552  157.3049 C.ar    1  UNL1       -0.0003
     21 C         142.6899  137.6094  158.3389 C.ar    1  UNL1       -0.0039
     22 C         142.4071  138.0534  159.7435 C.ar    1  UNL1       -0.0173
     23 C         141.0386  138.5432  160.1141 C.ar    1  UNL1       -0.0039
     24 C         139.9529  138.5890  159.0801 C.ar    1  UNL1       -0.0003
@<TRIPOS>BOND
     1    19    20   ar
     2    20    21   ar
     3    21    22   ar
     4    22    18    1
     5    18     1    1
     6     1     2   ar
     7     2     3   ar
     8     3     4   ar
     9     4     5   ar
    10     4     6    1
    11     6     7    1
    12     7     8    1
    13     8     9    1
    14     9    10    1
    15    10    11   ar
    16    11    12   ar
    17    12    13   ar
    18    13    14   ar
    19    14    15   ar
    20    15    16    1
    21    16    17    1
    22    22    23   ar
    23    23    24   ar
    24    24    19   ar
    25     5     1   ar
    26    17     8    1
    27    17     3    1
    28    15    10   ar
@<TRIPOS>MOLECULE
*****
 24 28 0 0 0
SMALL
GASTEIGER

@<TRIPOS>ATOM
      1 C         139.8679  142.3869  165.6846 C.ar    1  UNL1        0.0111
      2 C         140.2117  143.1251  164.4249 C.ar    1  UNL1       -0.0003
      3 C         139.4905  142.4633  163.2883 C.ar    1  UNL1       -0.0052
      4 C         138.7009  141.3162  163.8455 C.ar    1  UNL1        0.0057
      5 S         138.9341  141.2689  165.3265 S.2     1  UNL1       -0.0955
      6 C         137.8715  140.4628  162.9323 C.3     1  UNL1        0.0500
      7 C         137.8317  140.7567  161.4620 C.3     1  UNL1        0.0778
      8 N         138.6213  141.9039  160.9047 N.3     1  UNL1       -0.2659
      9 C         138.5815  142.1977  159.4343 C.3     1  UNL1        0.0991
     10 C         139.3711  143.3449  158.8771 C.ar    1  UNL1       -0.0100
     11 C         139.3313  143.6388  157.4067 C.ar    1  UNL1       -0.0032
     12 C         140.1209  144.7859  156.8495 C.ar    1  UNL1       -0.0003
     13 C         140.9503  145.6393  157.7627 C.ar    1  UNL1       -0.0003
     14 C         140.9901  145.3454  159.2331 C.ar    1  UNL1       -0.0045
     15 C         140.2005  144.1983  159.7903 C.ar    1  UNL1       -0.0231
     16 C         140.2403  143.9044  161.2607 C.3     1  UNL1        0.0465
     17 C         139.4507  142.7572  161.8179 C.3     1  UNL1        0.0849
     18 C         140.3698  142.7099  167.0608 C.3     1  UNL1        0.0592
     19 C         141.8077  139.4115  169.7632 C.ar    1  UNL1       -0.0000
     20 C         140.4902  140.0778  170.0284 C.ar    1  UNL1       -0.0003
     21 C         140.0109  141.1772  169.1277 C.ar    1  UNL1       -0.0039
     22 C         140.8491  141.6105  167.9616 C.ar    1  UNL1       -0.0173
     23 C         142.1665  140.9443  167.6963 C.ar    1  UNL1       -0.0039
     24 C         142.6459  139.8448  168.5971 C.ar    1  UNL1       -0.0003
@<TRIPOS>BOND
     1    19    20   ar
     2    20    21   ar
     3    21    22   ar
     4    22    18    1
     5    18     1    1
     6     1     2   ar
     7     2     3   ar
     8     3     4   ar
     9     4     5   ar
    10     4     6    1
    11     6     7    1
    12     7     8    1
    13     8     9    1
    14     9    10    1
    15    10    11   ar
    16    11    12   ar
    17    12    13   ar
    18    13    14   ar
    19    14    15   ar
    20    15    16    1
    21    16    17    1
    22    22    23   ar
    23    23    24   ar
    24    24    19   ar
    25     5     1   ar
    26    17     8    1
    27    17     3    1
    28    15    10   ar
