@<TRIPOS>MOLECULE
*****
 27 29 0 0 0
SMALL
GASTEIGER

@<TRIPOS>ATOM
      1 N         140.4201  141.6841  164.0319 N.pl3   1  UNL1       -0.3038
      2 C         140.1975  141.2777  165.4586 C.ar    1  UNL1        0.0490
      3 C         139.4938  139.9903  165.7706 C.ar    1  UNL1        0.0153
      4 C         139.2711  139.5839  167.1972 C.ar    1  UNL1        0.0124
      5 C         139.7522  140.4649  168.3118 C.ar    1  UNL1        0.0791
      6 C         140.4560  141.7523  167.9998 C.ar    1  UNL1        0.0685
      7 CL        140.9371  142.6333  169.1144 Cl      1  UNL1       -0.0815
      8 C         140.6786  142.1587  166.5732 C.ar    1  UNL1        0.0266
      9 C         139.5296  140.0584  169.7385 C.1     1  UNL1        0.1013
     10 N         139.3070  139.6520  171.1651 N.1     1  UNL1       -0.1908
     11 C         139.4949  146.3089  161.6580 C.3     1  UNL1        0.0897
     12 N         139.2917  145.0129  162.3852 N.3     1  UNL1       -0.2700
     13 C         137.9783  144.4635  162.8578 C.3     1  UNL1        0.0739
     14 C         138.2412  143.1497  163.5322 C.3     1  UNL1        0.0385
     15 C         139.7170  142.8871  163.4764 C.3     1  UNL1        0.0904
     16 C         140.3662  144.0386  162.7675 C.3     1  UNL1        0.0921
     17 C         141.3457  140.8876  163.1609 C.3     1  UNL1        0.1176
     18 C         142.8295  140.9832  163.3588 C.ar    1  UNL1        0.0015
     19 C         143.5782  142.1799  162.8517 C.ar    1  UNL1       -0.0027
     20 C         145.0621  142.2755  163.0496 C.ar    1  UNL1       -0.0003
     21 C         145.7972  141.1743  163.7545 C.ar    1  UNL1       -0.0001
     22 C         145.0484  139.9775  164.2616 C.ar    1  UNL1        0.0036
     23 C         143.5646  139.8819  164.0637 C.ar    1  UNL1        0.0691
     24 C         142.8159  138.6851  164.5708 C.3     1  UNL1        0.4183
     25 F         142.0672  137.4884  165.0778 F       1  UNL1       -0.1659
     26 F         142.7504  139.3043  165.9354 F       1  UNL1       -0.1659
     27 F         142.8814  138.0660  163.2061 F       1  UNL1       -0.1659
@<TRIPOS>BOND
     1    11    12    1
     2    12    13    1
     3    13    14    1
     4    14    15    1
     5    15     1    1
     6     1    17    1
     7    17    18    1
     8    18    19   ar
     9    19    20   ar
    10    20    21   ar
    11    21    22   ar
    12    22    23   ar
    13    23    24    1
    14    24    25    1
    15    24    26    1
    16    24    27    1
    17     1     2    1
    18     2     3   ar
    19     3     4   ar
    20     4     5   ar
    21     5     9    1
    22     9    10    3
    23     5     6   ar
    24     6     7    1
    25     6     8   ar
    26    15    16    1
    27    16    12    1
    28    23    18   ar
    29     8     2   ar
@<TRIPOS>MOLECULE
*****
 27 29 0 0 0
SMALL
GASTEIGER

@<TRIPOS>ATOM
      1 N         142.2476  139.4757  165.4640 N.pl3   1  UNL1       -0.3038
      2 C         141.8859  140.0235  166.8127 C.ar    1  UNL1        0.0490
      3 C         140.7960  141.0462  166.9392 C.ar    1  UNL1        0.0153
      4 C         140.4343  141.5941  168.2879 C.ar    1  UNL1        0.0124
      5 C         141.1626  141.1192  169.5102 C.ar    1  UNL1        0.0791
      6 C         142.2526  140.0964  169.3838 C.ar    1  UNL1        0.0685
      7 CL        142.9809  139.6216  170.6061 Cl      1  UNL1       -0.0815
      8 C         142.6143  139.5486  168.0351 C.ar    1  UNL1        0.0266
      9 C         140.8009  141.6670  170.8589 C.1     1  UNL1        0.1013
     10 N         140.4393  142.2149  172.2076 N.1     1  UNL1       -0.1908
     11 C         144.3861  143.0514  162.2203 C.3     1  UNL1        0.0897
     12 N         144.2089  141.8521  163.1036 N.3     1  UNL1       -0.2700
     13 C         145.2538  140.8204  163.4097 C.3     1  UNL1        0.0739
     14 C         144.6463  139.8045  164.3312 C.3     1  UNL1        0.0385
     15 C         143.2259  140.2086  164.5945 C.3     1  UNL1        0.0904
     16 C         142.9556  141.4740  163.8359 C.3     1  UNL1        0.0921
     17 C         141.6310  138.1951  164.9847 C.3     1  UNL1        0.1176
     18 C         140.7570  138.1936  163.7657 C.ar    1  UNL1        0.0015
     19 C         141.3712  138.0716  162.4027 C.ar    1  UNL1       -0.0027
     20 C         140.4972  138.0701  161.1836 C.ar    1  UNL1       -0.0003
     21 C         139.0091  138.1907  161.3275 C.ar    1  UNL1       -0.0001
     22 C         138.3948  138.3128  162.6906 C.ar    1  UNL1        0.0036
     23 C         139.2688  138.3142  163.9097 C.ar    1  UNL1        0.0691
     24 C         138.6546  138.4363  165.2727 C.3     1  UNL1        0.4183
     25 F         138.0405  138.5583  166.6357 F       1  UNL1       -0.1659
     26 F         138.7840  136.9541  165.4637 F       1  UNL1       -0.1659
     27 F         138.5253  139.9184  165.0817 F       1  UNL1       -0.1659
@<TRIPOS>BOND
     1    11    12    1
     2    12    13    1
     3    13    14    1
     4    14    15    1
     5    15     1    1
     6     1    17    1
     7    17    18    1
     8    18    19   ar
     9    19    20   ar
    10    20    21   ar
    11    21    22   ar
    12    22    23   ar
    13    23    24    1
    14    24    25    1
    15    24    26    1
    16    24    27    1
    17     1     2    1
    18     2     3   ar
    19     3     4   ar
    20     4     5   ar
    21     5     9    1
    22     9    10    3
    23     5     6   ar
    24     6     7    1
    25     6     8   ar
    26    15    16    1
    27    16    12    1
    28    23    18   ar
    29     8     2   ar
@<TRIPOS>MOLECULE
*****
 27 29 0 0 0
SMALL
GASTEIGER

@<TRIPOS>ATOM
      1 N         140.4888  140.9748  166.0754 N.pl3   1  UNL1       -0.3038
      2 C         140.2835  142.1232  165.1326 C.ar    1  UNL1        0.0490
      3 C         138.9499  142.3259  164.4767 C.ar    1  UNL1        0.0153
      4 C         138.7446  143.4744  163.5338 C.ar    1  UNL1        0.0124
      5 C         139.8730  144.4201  163.2469 C.ar    1  UNL1        0.0791
      6 C         141.2067  144.2174  163.9028 C.ar    1  UNL1        0.0685
      7 CL        142.3350  145.1631  163.6159 Cl      1  UNL1       -0.0815
      8 C         141.4120  143.0690  164.8456 C.ar    1  UNL1        0.0266
      9 C         139.6677  145.5685  162.3040 C.1     1  UNL1        0.1013
     10 N         139.4624  146.7170  161.3612 N.1     1  UNL1       -0.1908
     11 C         139.8604  143.0481  170.8907 C.3     1  UNL1        0.0897
     12 N         139.8661  142.0824  169.7430 N.3     1  UNL1       -0.2700
     13 C         139.4164  140.6522  169.7918 C.3     1  UNL1        0.0739
     14 C         139.5950  140.0632  168.4238 C.3     1  UNL1        0.0385
     15 C         140.1550  141.1294  167.5296 C.3     1  UNL1        0.0904
     16 C         140.3226  142.3773  168.3449 C.3     1  UNL1        0.0921
     17 C         141.0279  139.6718  165.5641 C.3     1  UNL1        0.1176
     18 C         140.5278  139.1109  164.2659 C.ar    1  UNL1        0.0015
     19 C         141.3235  139.3044  163.0092 C.ar    1  UNL1       -0.0027
     20 C         140.8234  138.7436  161.7110 C.ar    1  UNL1       -0.0003
     21 C         139.5276  137.9892  161.6695 C.ar    1  UNL1       -0.0001
     22 C         138.7318  137.7957  162.9262 C.ar    1  UNL1        0.0036
     23 C         139.2319  138.3565  164.2244 C.ar    1  UNL1        0.0691
     24 C         138.4362  138.1630  165.4811 C.3     1  UNL1        0.4183
     25 F         137.6405  137.9695  166.7378 F       1  UNL1       -0.1659
     26 F         139.0736  136.8195  165.6778 F       1  UNL1       -0.1659
     27 F         137.7988  139.5065  165.2844 F       1  UNL1       -0.1659
@<TRIPOS>BOND
     1    11    12    1
     2    12    13    1
     3    13    14    1
     4    14    15    1
     5    15     1    1
     6     1    17    1
     7    17    18    1
     8    18    19   ar
     9    19    20   ar
    10    20    21   ar
    11    21    22   ar
    12    22    23   ar
    13    23    24    1
    14    24    25    1
    15    24    26    1
    16    24    27    1
    17     1     2    1
    18     2     3   ar
    19     3     4   ar
    20     4     5   ar
    21     5     9    1
    22     9    10    3
    23     5     6   ar
    24     6     7    1
    25     6     8   ar
    26    15    16    1
    27    16    12    1
    28    23    18   ar
    29     8     2   ar
@<TRIPOS>MOLECULE
*****
 27 29 0 0 0
SMALL
GASTEIGER

@<TRIPOS>ATOM
      1 N         142.3516  142.1618  164.8999 N.pl3   1  UNL1       -0.3038
      2 C         141.9874  142.1676  166.3550 C.ar    1  UNL1        0.0490
      3 C         140.5453  142.1480  166.7672 C.ar    1  UNL1        0.0153
      4 C         140.1811  142.1539  168.2223 C.ar    1  UNL1        0.0124
      5 C         141.2589  142.1793  169.2652 C.ar    1  UNL1        0.0791
      6 C         142.7011  142.1989  168.8530 C.ar    1  UNL1        0.0685
      7 CL        143.7789  142.2243  169.8958 Cl      1  UNL1       -0.0815
      8 C         143.0653  142.1931  167.3979 C.ar    1  UNL1        0.0266
      9 C         140.8947  142.1851  170.7203 C.1     1  UNL1        0.1013
     10 N         140.5304  142.1909  172.1754 N.1     1  UNL1       -0.1908
     11 C         139.7163  145.4390  161.7068 C.3     1  UNL1        0.0897
     12 N         140.7908  144.8425  162.5669 N.3     1  UNL1       -0.2700
     13 C         142.1377  145.4441  162.8391 C.3     1  UNL1        0.0739
     14 C         142.8863  144.5130  163.7462 C.3     1  UNL1        0.0385
     15 C         142.0021  143.3362  164.0345 C.3     1  UNL1        0.0904
     16 C         140.7070  143.5398  163.3057 C.3     1  UNL1        0.0921
     17 C         143.0654  140.9817  164.3101 C.3     1  UNL1        0.1176
     18 C         142.2923  139.7592  163.9132 C.ar    1  UNL1        0.0015
     19 C         141.6632  139.6782  162.5539 C.ar    1  UNL1       -0.0027
     20 C         140.8900  138.4556  162.1569 C.ar    1  UNL1       -0.0003
     21 C         140.7460  137.3141  163.1192 C.ar    1  UNL1       -0.0001
     22 C         141.3751  137.3950  164.4786 C.ar    1  UNL1        0.0036
     23 C         142.1482  138.6176  164.8755 C.ar    1  UNL1        0.0691
     24 C         142.7773  138.6986  166.2348 C.3     1  UNL1        0.4183
     25 F         143.4064  138.7796  167.5941 F       1  UNL1       -0.1659
     26 F         141.4497  139.0677  166.8272 F       1  UNL1       -0.1659
     27 F         144.1049  138.3294  165.6424 F       1  UNL1       -0.1659
@<TRIPOS>BOND
     1    11    12    1
     2    12    13    1
     3    13    14    1
     4    14    15    1
     5    15     1    1
     6     1    17    1
     7    17    18    1
     8    18    19   ar
     9    19    20   ar
    10    20    21   ar
    11    21    22   ar
    12    22    23   ar
    13    23    24    1
    14    24    25    1
    15    24    26    1
    16    24    27    1
    17     1     2    1
    18     2     3   ar
    19     3     4   ar
    20     4     5   ar
    21     5     9    1
    22     9    10    3
    23     5     6   ar
    24     6     7    1
    25     6     8   ar
    26    15    16    1
    27    16    12    1
    28    23    18   ar
    29     8     2   ar
@<TRIPOS>MOLECULE
*****
 27 29 0 0 0
SMALL
GASTEIGER

@<TRIPOS>ATOM
      1 N         141.5169  141.5620  166.2900 N.pl3   1  UNL1       -0.3038
      2 C         141.1007  142.5916  165.2816 C.ar    1  UNL1        0.0490
      3 C         142.1325  143.4657  164.6326 C.ar    1  UNL1        0.0153
      4 C         141.7163  144.4952  163.6242 C.ar    1  UNL1        0.0124
      5 C         140.2683  144.6506  163.2648 C.ar    1  UNL1        0.0791
      6 C         139.2365  143.7765  163.9139 C.ar    1  UNL1        0.0685
      7 CL        137.7885  143.9319  163.5546 Cl      1  UNL1       -0.0815
      8 C         139.6527  142.7470  164.9223 C.ar    1  UNL1        0.0266
      9 C         139.8521  145.6802  162.2565 C.1     1  UNL1        0.1013
     10 N         139.4360  146.7097  161.2481 N.1     1  UNL1       -0.1908
     11 C         139.5671  142.9683  170.9912 C.3     1  UNL1        0.0897
     12 N         139.9463  142.1544  169.7897 N.3     1  UNL1       -0.2700
     13 C         139.6632  140.6951  169.5882 C.3     1  UNL1        0.0739
     14 C         140.2171  140.2956  168.2526 C.3     1  UNL1        0.0385
     15 C         140.8425  141.5080  167.6288 C.3     1  UNL1        0.0904
     16 C         140.6751  142.6567  168.5788 C.3     1  UNL1        0.0921
     17 C         142.6075  140.5866  165.9596 C.3     1  UNL1        0.1176
     18 C         142.4323  139.6218  164.8245 C.ar    1  UNL1        0.0015
     19 C         141.1802  138.8021  164.7234 C.ar    1  UNL1       -0.0027
     20 C         141.0049  137.8373  163.5883 C.ar    1  UNL1       -0.0003
     21 C         142.0818  137.6923  162.5542 C.ar    1  UNL1       -0.0001
     22 C         143.3340  138.5120  162.6553 C.ar    1  UNL1        0.0036
     23 C         143.5092  139.4768  163.7905 C.ar    1  UNL1        0.0691
     24 C         144.7613  140.2965  163.8916 C.3     1  UNL1        0.4183
     25 F         146.0134  141.1162  163.9927 F       1  UNL1       -0.1659
     26 F         144.1242  141.3720  163.0626 F       1  UNL1       -0.1659
     27 F         145.3985  139.2210  164.7206 F       1  UNL1       -0.1659
@<TRIPOS>BOND
     1    11    12    1
     2    12    13    1
     3    13    14    1
     4    14    15    1
     5    15     1    1
     6     1    17    1
     7    17    18    1
     8    18    19   ar
     9    19    20   ar
    10    20    21   ar
    11    21    22   ar
    12    22    23   ar
    13    23    24    1
    14    24    25    1
    15    24    26    1
    16    24    27    1
    17     1     2    1
    18     2     3   ar
    19     3     4   ar
    20     4     5   ar
    21     5     9    1
    22     9    10    3
    23     5     6   ar
    24     6     7    1
    25     6     8   ar
    26    15    16    1
    27    16    12    1
    28    23    18   ar
    29     8     2   ar
@<TRIPOS>MOLECULE
*****
 27 29 0 0 0
SMALL
GASTEIGER

@<TRIPOS>ATOM
      1 N         140.4844  141.6050  164.7426 N.pl3   1  UNL1       -0.3038
      2 C         140.5007  141.7388  166.2366 C.ar    1  UNL1        0.0490
      3 C         140.1839  143.0587  166.8748 C.ar    1  UNL1        0.0153
      4 C         140.2001  143.1926  168.3687 C.ar    1  UNL1        0.0124
      5 C         140.5332  142.0065  169.2244 C.ar    1  UNL1        0.0791
      6 C         140.8501  140.6865  168.5862 C.ar    1  UNL1        0.0685
      7 CL        141.1832  139.5005  169.4419 Cl      1  UNL1       -0.0815
      8 C         140.8338  140.5527  167.0922 C.ar    1  UNL1        0.0266
      9 C         140.5495  142.1404  170.7183 C.1     1  UNL1        0.1013
     10 N         140.5658  142.2742  172.2123 N.1     1  UNL1       -0.1908
     11 C         139.8623  145.8610  161.6800 C.3     1  UNL1        0.0897
     12 N         139.5736  144.6338  162.4926 N.3     1  UNL1       -0.2700
     13 C         138.2224  144.0218  162.7157 C.3     1  UNL1        0.0739
     14 C         138.3992  142.8126  163.5858 C.3     1  UNL1        0.0385
     15 C         139.8596  142.6775  163.9003 C.3     1  UNL1        0.0904
     16 C         140.5854  143.8029  163.2247 C.3     1  UNL1        0.0921
     17 C         141.0930  140.3988  164.0910 C.3     1  UNL1        0.1176
     18 C         140.3392  139.6626  163.0233 C.ar    1  UNL1        0.0015
     19 C         140.6858  139.8738  161.5793 C.ar    1  UNL1       -0.0027
     20 C         139.9321  139.1377  160.5117 C.ar    1  UNL1       -0.0003
     21 C         138.8317  138.1903  160.8880 C.ar    1  UNL1       -0.0001
     22 C         138.4851  137.9790  162.3321 C.ar    1  UNL1        0.0036
     23 C         139.2388  138.7152  163.3997 C.ar    1  UNL1        0.0691
     24 C         138.8922  138.5040  164.8437 C.3     1  UNL1        0.4183
     25 F         138.5457  138.2927  166.2878 F       1  UNL1       -0.1659
     26 F         139.8485  137.3500  164.9045 F       1  UNL1       -0.1659
     27 F         137.9359  139.6580  164.7830 F       1  UNL1       -0.1659
@<TRIPOS>BOND
     1    11    12    1
     2    12    13    1
     3    13    14    1
     4    14    15    1
     5    15     1    1
     6     1    17    1
     7    17    18    1
     8    18    19   ar
     9    19    20   ar
    10    20    21   ar
    11    21    22   ar
    12    22    23   ar
    13    23    24    1
    14    24    25    1
    15    24    26    1
    16    24    27    1
    17     1     2    1
    18     2     3   ar
    19     3     4   ar
    20     4     5   ar
    21     5     9    1
    22     9    10    3
    23     5     6   ar
    24     6     7    1
    25     6     8   ar
    26    15    16    1
    27    16    12    1
    28    23    18   ar
    29     8     2   ar
@<TRIPOS>MOLECULE
*****
 27 29 0 0 0
SMALL
GASTEIGER

@<TRIPOS>ATOM
      1 N         141.3579  140.4447  164.8276 N.pl3   1  UNL1       -0.3038
      2 C         141.2033  140.7656  166.2847 C.ar    1  UNL1        0.0490
      3 C         139.9013  140.4943  166.9784 C.ar    1  UNL1        0.0153
      4 C         139.7467  140.8152  168.4355 C.ar    1  UNL1        0.0124
      5 C         140.8940  141.4073  169.1989 C.ar    1  UNL1        0.0791
      6 C         142.1961  141.6786  168.5052 C.ar    1  UNL1        0.0685
      7 CL        143.3434  142.2708  169.2687 Cl      1  UNL1       -0.0815
      8 C         142.3507  141.3578  167.0481 C.ar    1  UNL1        0.0266
      9 C         140.7394  141.7282  170.6560 C.1     1  UNL1        0.1013
     10 N         140.5847  142.0491  172.1131 N.1     1  UNL1       -0.1908
     11 C         137.6796  138.3331  161.6825 C.3     1  UNL1        0.0897
     12 N         138.7430  138.4896  162.7286 N.3     1  UNL1       -0.2700
     13 C         139.2805  137.4007  163.6093 C.3     1  UNL1        0.0739
     14 C         140.3254  138.0006  164.5028 C.3     1  UNL1        0.0385
     15 C         140.4338  139.4601  164.1743 C.3     1  UNL1        0.0904
     16 C         139.4558  139.7623  163.0778 C.3     1  UNL1        0.0921
     17 C         142.4366  141.1082  164.0239 C.3     1  UNL1        0.1176
     18 C         142.4392  142.5991  163.8585 C.ar    1  UNL1        0.0015
     19 C         141.1574  143.3690  163.9767 C.ar    1  UNL1       -0.0027
     20 C         141.1600  144.8599  163.8114 C.ar    1  UNL1       -0.0003
     21 C         142.4444  145.5808  163.5279 C.ar    1  UNL1       -0.0001
     22 C         143.7264  144.8109  163.4097 C.ar    1  UNL1        0.0036
     23 C         143.7237  143.3200  163.5750 C.ar    1  UNL1        0.0691
     24 C         145.0056  142.5500  163.4568 C.3     1  UNL1        0.4183
     25 F         146.2874  141.7801  163.3386 F       1  UNL1       -0.1659
     26 F         144.7444  142.3396  161.9948 F       1  UNL1       -0.1659
     27 F         145.2668  142.7605  164.9188 F       1  UNL1       -0.1659
@<TRIPOS>BOND
     1    11    12    1
     2    12    13    1
     3    13    14    1
     4    14    15    1
     5    15     1    1
     6     1    17    1
     7    17    18    1
     8    18    19   ar
     9    19    20   ar
    10    20    21   ar
    11    21    22   ar
    12    22    23   ar
    13    23    24    1
    14    24    25    1
    15    24    26    1
    16    24    27    1
    17     1     2    1
    18     2     3   ar
    19     3     4   ar
    20     4     5   ar
    21     5     9    1
    22     9    10    3
    23     5     6   ar
    24     6     7    1
    25     6     8   ar
    26    15    16    1
    27    16    12    1
    28    23    18   ar
    29     8     2   ar
@<TRIPOS>MOLECULE
*****
 27 29 0 0 0
SMALL
GASTEIGER

@<TRIPOS>ATOM
      1 N         141.3940  140.3340  164.7975 N.pl3   1  UNL1       -0.3038
      2 C         141.2507  140.6904  166.2475 C.ar    1  UNL1        0.0490
      3 C         140.5619  141.9630  166.6424 C.ar    1  UNL1        0.0153
      4 C         140.4185  142.3194  168.0924 C.ar    1  UNL1        0.0124
      5 C         140.9639  141.4032  169.1474 C.ar    1  UNL1        0.0791
      6 C         141.6527  140.1305  168.7525 C.ar    1  UNL1        0.0685
      7 CL        142.1981  139.2144  169.8075 Cl      1  UNL1       -0.0815
      8 C         141.7961  139.7741  167.3025 C.ar    1  UNL1        0.0266
      9 C         140.8205  141.7597  170.5974 C.1     1  UNL1        0.1013
     10 N         140.6771  142.1161  172.0474 N.1     1  UNL1       -0.1908
     11 C         137.5922  138.6324  161.5524 C.3     1  UNL1        0.0897
     12 N         138.6211  138.6808  162.6427 N.3     1  UNL1       -0.2700
     13 C         138.9602  137.5641  163.5851 C.3     1  UNL1        0.0739
     14 C         140.0403  138.0475  164.5071 C.3     1  UNL1        0.0385
     15 C         140.3686  139.4629  164.1344 C.3     1  UNL1        0.0904
     16 C         139.4915  139.8543  162.9822 C.3     1  UNL1        0.0921
     17 C         142.5628  140.8486  164.0107 C.3     1  UNL1        0.1176
     18 C         143.0223  142.2652  164.1899 C.ar    1  UNL1        0.0015
     19 C         144.1262  142.5791  165.1556 C.ar    1  UNL1       -0.0027
     20 C         144.5857  143.9958  165.3349 C.ar    1  UNL1       -0.0003
     21 C         143.9412  145.0984  164.5484 C.ar    1  UNL1       -0.0001
     22 C         142.8371  144.7845  163.5826 C.ar    1  UNL1        0.0036
     23 C         142.3777  143.3679  163.4034 C.ar    1  UNL1        0.0691
     24 C         141.2737  143.0540  162.4377 C.3     1  UNL1        0.4183
     25 F         140.1697  142.7401  161.4719 F       1  UNL1       -0.1659
     26 F         142.2806  142.9008  161.3364 F       1  UNL1       -0.1659
     27 F         140.2668  143.2071  163.5389 F       1  UNL1       -0.1659
@<TRIPOS>BOND
     1    11    12    1
     2    12    13    1
     3    13    14    1
     4    14    15    1
     5    15     1    1
     6     1    17    1
     7    17    18    1
     8    18    19   ar
     9    19    20   ar
    10    20    21   ar
    11    21    22   ar
    12    22    23   ar
    13    23    24    1
    14    24    25    1
    15    24    26    1
    16    24    27    1
    17     1     2    1
    18     2     3   ar
    19     3     4   ar
    20     4     5   ar
    21     5     9    1
    22     9    10    3
    23     5     6   ar
    24     6     7    1
    25     6     8   ar
    26    15    16    1
    27    16    12    1
    28    23    18   ar
    29     8     2   ar
@<TRIPOS>MOLECULE
*****
 27 29 0 0 0
SMALL
GASTEIGER

@<TRIPOS>ATOM
      1 N         140.5623  141.9195  164.5503 N.pl3   1  UNL1       -0.3038
      2 C         140.5620  141.9507  166.0499 C.ar    1  UNL1        0.0490
      3 C         140.1654  143.2031  166.7739 C.ar    1  UNL1        0.0153
      4 C         140.1651  143.2343  168.2736 C.ar    1  UNL1        0.0124
      5 C         140.5615  142.0132  169.0493 C.ar    1  UNL1        0.0791
      6 C         140.9581  140.7607  168.3253 C.ar    1  UNL1        0.0685
      7 CL        141.3545  139.5396  169.1009 Cl      1  UNL1       -0.0815
      8 C         140.9584  140.7295  166.8256 C.ar    1  UNL1        0.0266
      9 C         140.5612  142.0444  170.5490 C.1     1  UNL1        0.1013
     10 N         140.5609  142.0757  172.0486 N.1     1  UNL1       -0.1908
     11 C         137.6670  138.4909  161.7677 C.3     1  UNL1        0.0897
     12 N         138.0894  139.7091  162.5341 N.3     1  UNL1       -0.2700
     13 C         137.2363  140.9085  162.8235 C.3     1  UNL1        0.0739
     14 C         138.0589  141.8825  163.6140 C.3     1  UNL1        0.0385
     15 C         139.4202  141.2850  163.8131 C.3     1  UNL1        0.0904
     16 C         139.4391  139.9418  163.1457 C.3     1  UNL1        0.0921
     17 C         141.7045  142.5226  163.7877 C.3     1  UNL1        0.1176
     18 C         143.0530  141.8663  163.8132 C.ar    1  UNL1        0.0015
     19 C         143.1751  140.3933  163.5577 C.ar    1  UNL1       -0.0027
     20 C         144.5237  139.7369  163.5832 C.ar    1  UNL1       -0.0003
     21 C         145.7501  140.5536  163.8641 C.ar    1  UNL1       -0.0001
     22 C         145.6280  142.0267  164.1196 C.ar    1  UNL1        0.0036
     23 C         144.2795  142.6830  164.0942 C.ar    1  UNL1        0.0691
     24 C         144.1573  144.1560  164.3496 C.3     1  UNL1        0.4183
     25 F         144.0352  145.6290  164.6051 F       1  UNL1       -0.1659
     26 F         144.0110  143.8892  165.8184 F       1  UNL1       -0.1659
     27 F         144.3037  144.4229  162.8809 F       1  UNL1       -0.1659
@<TRIPOS>BOND
     1    11    12    1
     2    12    13    1
     3    13    14    1
     4    14    15    1
     5    15     1    1
     6     1    17    1
     7    17    18    1
     8    18    19   ar
     9    19    20   ar
    10    20    21   ar
    11    21    22   ar
    12    22    23   ar
    13    23    24    1
    14    24    25    1
    15    24    26    1
    16    24    27    1
    17     1     2    1
    18     2     3   ar
    19     3     4   ar
    20     4     5   ar
    21     5     9    1
    22     9    10    3
    23     5     6   ar
    24     6     7    1
    25     6     8   ar
    26    15    16    1
    27    16    12    1
    28    23    18   ar
    29     8     2   ar
