@<TRIPOS>MOLECULE
*****
 33 36 0 0 0
SMALL
GASTEIGER

@<TRIPOS>ATOM
      1 C         139.5591  140.8204  160.4286 C.ar    1  UNL1        0.0154
      2 C         138.8126  142.0646  160.0483 C.ar    1  UNL1        0.0985
      3 N         138.1383  142.8875  161.1057 N.ar    1  UNL1       -0.2423
      4 C         138.2105  142.4661  162.5435 C.ar    1  UNL1        0.0985
      5 C         138.9570  141.2218  162.9238 C.ar    1  UNL1        0.0152
      6 C         139.6313  140.3990  161.8663 C.ar    1  UNL1       -0.0188
      7 C         140.3778  139.1548  162.2466 C.3     1  UNL1        0.0311
      8 C         142.3886  139.2897  158.1046 C.ar    1  UNL1        0.1754
      9 C         141.7143  140.1125  159.1620 C.ar    1  UNL1        0.0403
     10 C         140.2334  139.9975  159.3710 C.ar    1  UNL1        0.0074
     11 C         139.4268  139.0597  158.5226 C.ar    1  UNL1        0.0403
     12 C         140.1011  138.2369  157.4652 C.ar    1  UNL1        0.1754
     13 C         141.5821  138.3519  157.2561 C.ar    1  UNL1        0.2061
     14 C         144.4396  140.6159  157.2188 C.3     1  UNL1        0.2526
     15 O         143.8696  139.4047  157.8956 O.3     1  UNL1       -0.4683
     16 O         139.2946  137.2991  156.6166 O.3     1  UNL1       -0.4683
     17 C         138.8108  137.7373  155.2662 C.3     1  UNL1        0.2526
     18 O         142.2564  137.5291  156.1986 O.3     1  UNL1       -0.4654
     19 C         142.6362  136.1063  156.4841 C.3     1  UNL1        0.2528
     20 C         139.0292  140.8005  164.3616 C.ar    1  UNL1        0.0014
     21 C         140.0190  141.4479  165.2841 C.ar    1  UNL1        0.0032
     22 C         140.0912  141.0266  166.7219 C.ar    1  UNL1        0.0369
     23 C         139.1736  139.9577  167.2372 C.ar    1  UNL1        0.1384
     24 C         138.1837  139.3102  166.3146 C.ar    1  UNL1        0.0369
     25 C         138.1116  139.7316  164.8769 C.ar    1  UNL1        0.0032
     26 O         139.2458  139.5363  168.6749 O.3     1  UNL1       -0.4791
     27 C         140.2210  140.1986  169.6025 C.3     1  UNL1        0.1687
     28 C         141.5789  139.5983  169.8162 C.3     1  UNL1        0.0606
     29 C         142.5541  140.2607  170.7438 C.3     1  UNL1        0.0723
     30 N         142.1714  141.5231  171.4576 N.3     1  UNL1       -0.2973
     31 C         140.8134  142.1234  171.2439 C.3     1  UNL1        0.0723
     32 C         139.8382  141.4611  170.3163 C.3     1  UNL1        0.0606
     33 H         142.8527  142.2324  171.1872 H       1  UNL1        0.1233
@<TRIPOS>BOND
     1    14    15    1
     2    15     8    1
     3     8     9   ar
     4     9    10   ar
     5    10     1    1
     6     1     2   ar
     7     2     3   ar
     8     3     4   ar
     9     4     5   ar
    10     5    20    1
    11    20    21   ar
    12    21    22   ar
    13    22    23   ar
    14    23    26    1
    15    26    27    1
    16    27    28    1
    17    28    29    1
    18    29    30    1
    19    30    31    1
    20    31    32    1
    21    23    24   ar
    22    24    25   ar
    23     5     6   ar
    24     6     7    1
    25    10    11   ar
    26    11    12   ar
    27    12    16    1
    28    16    17    1
    29    12    13   ar
    30    13    18    1
    31    18    19    1
    32    13     8   ar
    33     6     1   ar
    34    25    20   ar
    35    32    27    1
    36    30    33    1
@<TRIPOS>MOLECULE
*****
 33 36 0 0 0
SMALL
GASTEIGER

@<TRIPOS>ATOM
      1 C         139.5678  140.8534  160.4137 C.ar    1  UNL1        0.0154
      2 C         138.8299  142.1035  160.0359 C.ar    1  UNL1        0.0985
      3 N         138.1598  142.9279  161.0947 N.ar    1  UNL1       -0.2423
      4 C         138.2276  142.5022  162.5315 C.ar    1  UNL1        0.0985
      5 C         138.9655  141.2521  162.9093 C.ar    1  UNL1        0.0152
      6 C         139.6356  140.4277  161.8504 C.ar    1  UNL1       -0.0188
      7 C         140.3735  139.1776  162.2282 C.3     1  UNL1        0.0311
      8 C         140.1049  138.2356  157.4796 C.ar    1  UNL1        0.1754
      9 C         139.4348  139.0600  158.5385 C.ar    1  UNL1        0.0403
     10 C         140.2379  140.0290  159.3547 C.ar    1  UNL1        0.0074
     11 C         141.7110  140.1736  159.1119 C.ar    1  UNL1        0.0403
     12 C         142.3810  139.3492  158.0530 C.ar    1  UNL1        0.1754
     13 C         141.5780  138.3802  157.2368 C.ar    1  UNL1        0.2061
     14 C         138.8836  137.6269  155.2687 C.3     1  UNL1        0.2526
     15 O         139.3018  137.2666  156.6634 O.3     1  UNL1       -0.4683
     16 O         143.8542  139.4938  157.8102 O.3     1  UNL1       -0.4683
     17 C         144.3479  140.3510  156.6827 C.3     1  UNL1        0.2526
     18 O         142.2481  137.5558  156.1779 O.3     1  UNL1       -0.4654
     19 C         142.7387  136.1755  156.5005 C.3     1  UNL1        0.2528
     20 C         139.0332  140.8264  164.3460 C.ar    1  UNL1        0.0014
     21 C         140.0175  141.4738  165.2744 C.ar    1  UNL1        0.0032
     22 C         140.0854  141.0481  166.7112 C.ar    1  UNL1        0.0369
     23 C         139.1689  139.9750  167.2195 C.ar    1  UNL1        0.1384
     24 C         138.1845  139.3275  166.2910 C.ar    1  UNL1        0.0369
     25 C         138.1167  139.7533  164.8543 C.ar    1  UNL1        0.0032
     26 O         139.2366  139.5493  168.6562 O.3     1  UNL1       -0.4791
     27 C         140.2139  140.2038  169.5870 C.3     1  UNL1        0.1687
     28 C         139.8399  141.4709  170.2972 C.3     1  UNL1        0.0606
     29 C         140.8173  142.1255  171.2281 C.3     1  UNL1        0.0723
     30 N         142.1686  141.5128  171.4487 N.3     1  UNL1       -0.2973
     31 C         142.5426  140.2457  170.7384 C.3     1  UNL1        0.0723
     32 C         141.5653  139.5912  169.8076 C.3     1  UNL1        0.0606
     33 H         142.2468  141.3243  172.4481 H       1  UNL1        0.1233
@<TRIPOS>BOND
     1    14    15    1
     2    15     8    1
     3     8     9   ar
     4     9    10   ar
     5    10     1    1
     6     1     2   ar
     7     2     3   ar
     8     3     4   ar
     9     4     5   ar
    10     5    20    1
    11    20    21   ar
    12    21    22   ar
    13    22    23   ar
    14    23    26    1
    15    26    27    1
    16    27    28    1
    17    28    29    1
    18    29    30    1
    19    30    31    1
    20    31    32    1
    21    23    24   ar
    22    24    25   ar
    23     5     6   ar
    24     6     7    1
    25    10    11   ar
    26    11    12   ar
    27    12    16    1
    28    16    17    1
    29    12    13   ar
    30    13    18    1
    31    18    19    1
    32    13     8   ar
    33     6     1   ar
    34    25    20   ar
    35    32    27    1
    36    30    33    1
@<TRIPOS>MOLECULE
*****
 33 36 0 0 0
SMALL
GASTEIGER

@<TRIPOS>ATOM
      1 C         139.9229  141.7053  164.9726 C.ar    1  UNL1        0.0154
      2 C         138.5310  141.1481  164.9251 C.ar    1  UNL1        0.0985
      3 N         137.6699  141.3830  163.7197 N.ar    1  UNL1       -0.2423
      4 C         138.2005  142.1752  162.5617 C.ar    1  UNL1        0.0985
      5 C         139.5924  142.7324  162.6092 C.ar    1  UNL1        0.0152
      6 C         140.4536  142.4974  163.8147 C.ar    1  UNL1       -0.0188
      7 C         141.8454  143.0547  163.8622 C.3     1  UNL1        0.0311
      8 C         142.4994  140.0052  167.4669 C.ar    1  UNL1        0.1754
      9 C         141.6383  140.2402  166.2614 C.ar    1  UNL1        0.0403
     10 C         140.7841  141.4704  166.1782 C.ar    1  UNL1        0.0074
     11 C         140.7911  142.4656  167.3004 C.ar    1  UNL1        0.0403
     12 C         141.6522  142.2306  168.5058 C.ar    1  UNL1        0.1754
     13 C         142.5064  141.0004  168.5891 C.ar    1  UNL1        0.2061
     14 C         143.8094  138.0920  166.2948 C.3     1  UNL1        0.2526
     15 O         143.3536  138.7750  167.5501 O.3     1  UNL1       -0.4683
     16 O         141.6592  143.2259  169.6281 O.3     1  UNL1       -0.4683
     17 C         140.4246  144.0214  169.9328 C.3     1  UNL1        0.2526
     18 O         143.3676  140.7655  169.7946 O.3     1  UNL1       -0.4654
     19 C         142.9005  139.8435  170.8818 C.3     1  UNL1        0.2528
     20 C         140.1231  143.5245  161.4512 C.ar    1  UNL1        0.0014
     21 C         139.9243  145.0105  161.4052 C.ar    1  UNL1        0.0032
     22 C         140.4550  145.8027  160.2472 C.ar    1  UNL1        0.0369
     23 C         141.1845  145.1088  159.1353 C.ar    1  UNL1        0.1384
     24 C         141.3832  143.6227  159.1814 C.ar    1  UNL1        0.0369
     25 C         140.8526  142.8306  160.3393 C.ar    1  UNL1        0.0032
     26 O         141.7151  145.9009  157.9773 O.3     1  UNL1       -0.4791
     27 C         140.9187  146.0024  156.7103 C.3     1  UNL1        0.1687
     28 C         141.4426  145.3919  155.4443 C.3     1  UNL1        0.0606
     29 C         140.6461  145.4935  154.1772 C.3     1  UNL1        0.0723
     30 N         139.3259  146.2055  154.1762 N.3     1  UNL1       -0.2973
     31 C         138.8020  146.8160  155.4423 C.3     1  UNL1        0.0723
     32 C         139.5984  146.7145  156.7093 C.3     1  UNL1        0.0606
     33 H         138.6276  145.5307  153.8639 H       1  UNL1        0.1233
@<TRIPOS>BOND
     1    14    15    1
     2    15     8    1
     3     8     9   ar
     4     9    10   ar
     5    10     1    1
     6     1     2   ar
     7     2     3   ar
     8     3     4   ar
     9     4     5   ar
    10     5    20    1
    11    20    21   ar
    12    21    22   ar
    13    22    23   ar
    14    23    26    1
    15    26    27    1
    16    27    28    1
    17    28    29    1
    18    29    30    1
    19    30    31    1
    20    31    32    1
    21    23    24   ar
    22    24    25   ar
    23     5     6   ar
    24     6     7    1
    25    10    11   ar
    26    11    12   ar
    27    12    16    1
    28    16    17    1
    29    12    13   ar
    30    13    18    1
    31    18    19    1
    32    13     8   ar
    33     6     1   ar
    34    25    20   ar
    35    32    27    1
    36    30    33    1
@<TRIPOS>MOLECULE
*****
 33 36 0 0 0
SMALL
GASTEIGER

@<TRIPOS>ATOM
      1 C         139.9118  141.6557  165.0311 C.ar    1  UNL1        0.0154
      2 C         138.5272  141.0803  164.9904 C.ar    1  UNL1        0.0985
      3 N         137.6555  141.3076  163.7911 N.ar    1  UNL1       -0.2423
      4 C         138.1684  142.1104  162.6324 C.ar    1  UNL1        0.0985
      5 C         139.5530  142.6858  162.6731 C.ar    1  UNL1        0.0152
      6 C         140.4248  142.4584  163.8725 C.ar    1  UNL1       -0.0188
      7 C         141.8094  143.0339  163.9132 C.3     1  UNL1        0.0311
      8 C         141.6622  142.1969  168.5516 C.ar    1  UNL1        0.1754
      9 C         140.7905  142.4242  167.3522 C.ar    1  UNL1        0.0403
     10 C         140.7835  141.4283  166.2305 C.ar    1  UNL1        0.0074
     11 C         141.6482  140.2051  166.3082 C.ar    1  UNL1        0.0403
     12 C         142.5199  139.9778  167.5075 C.ar    1  UNL1        0.1754
     13 C         142.5269  140.9737  168.6292 C.ar    1  UNL1        0.2061
     14 C         140.4564  144.0356  169.9354 C.3     1  UNL1        0.2526
     15 O         141.6692  143.1928  169.6733 O.3     1  UNL1       -0.4683
     16 O         143.3846  138.7546  167.5853 O.3     1  UNL1       -0.4683
     17 C         143.7952  138.0453  166.3290 C.3     1  UNL1        0.2526
     18 O         143.3986  140.7463  169.8286 O.3     1  UNL1       -0.4654
     19 C         142.9363  139.8399  170.9307 C.3     1  UNL1        0.2528
     20 C         140.0660  143.4886  161.5145 C.ar    1  UNL1        0.0014
     21 C         139.8542  144.9731  161.4784 C.ar    1  UNL1        0.0032
     22 C         140.3671  145.7759  160.3197 C.ar    1  UNL1        0.0369
     23 C         141.0918  145.0941  159.1972 C.ar    1  UNL1        0.1384
     24 C         141.3036  143.6096  159.2334 C.ar    1  UNL1        0.0369
     25 C         140.7907  142.8068  160.3920 C.ar    1  UNL1        0.0032
     26 O         141.6048  145.8969  158.0386 O.3     1  UNL1       -0.4791
     27 C         140.8174  145.9610  156.7635 C.3     1  UNL1        0.1687
     28 C         141.2775  145.1950  155.5586 C.3     1  UNL1        0.0606
     29 C         140.4900  145.2591  154.2835 C.3     1  UNL1        0.0723
     30 N         139.2426  146.0891  154.2133 N.3     1  UNL1       -0.2973
     31 C         138.7825  146.8551  155.4181 C.3     1  UNL1        0.0723
     32 C         139.5699  146.7910  156.6932 C.3     1  UNL1        0.0606
     33 H         138.4830  145.4581  153.9578 H       1  UNL1        0.1233
@<TRIPOS>BOND
     1    14    15    1
     2    15     8    1
     3     8     9   ar
     4     9    10   ar
     5    10     1    1
     6     1     2   ar
     7     2     3   ar
     8     3     4   ar
     9     4     5   ar
    10     5    20    1
    11    20    21   ar
    12    21    22   ar
    13    22    23   ar
    14    23    26    1
    15    26    27    1
    16    27    28    1
    17    28    29    1
    18    29    30    1
    19    30    31    1
    20    31    32    1
    21    23    24   ar
    22    24    25   ar
    23     5     6   ar
    24     6     7    1
    25    10    11   ar
    26    11    12   ar
    27    12    16    1
    28    16    17    1
    29    12    13   ar
    30    13    18    1
    31    18    19    1
    32    13     8   ar
    33     6     1   ar
    34    25    20   ar
    35    32    27    1
    36    30    33    1
@<TRIPOS>MOLECULE
*****
 33 36 0 0 0
SMALL
GASTEIGER

@<TRIPOS>ATOM
      1 C         139.9662  139.7167  160.6004 C.ar    1  UNL1        0.0154
      2 C         140.8703  138.5948  160.1834 C.ar    1  UNL1        0.0985
      3 N         141.4421  137.6691  161.2159 N.ar    1  UNL1       -0.2423
      4 C         141.1098  137.8652  162.6654 C.ar    1  UNL1        0.0985
      5 C         140.2056  138.9870  163.0825 C.ar    1  UNL1        0.0152
      6 C         139.6338  139.9128  162.0499 C.ar    1  UNL1       -0.0188
      7 C         138.7297  141.0347  162.4670 C.3     1  UNL1        0.0311
      8 C         137.6471  141.1365  157.7097 C.ar    1  UNL1        0.1754
      9 C         138.2189  140.2108  158.7422 C.ar    1  UNL1        0.0403
     10 C         139.3944  140.6425  159.5679 C.ar    1  UNL1        0.0074
     11 C         139.9981  141.9999  159.3611 C.ar    1  UNL1        0.0403
     12 C         139.4263  142.9256  158.3286 C.ar    1  UNL1        0.1754
     13 C         138.2508  142.4939  157.5029 C.ar    1  UNL1        0.2061
     14 C         136.6801  140.2087  155.4839 C.3     1  UNL1        0.2526
     15 O         136.4715  140.7047  156.8841 O.3     1  UNL1       -0.4683
     16 O         140.0300  144.2832  158.1218 O.3     1  UNL1       -0.4683
     17 C         140.2857  145.1775  159.2985 C.3     1  UNL1        0.2526
     18 O         137.6790  143.4197  156.4704 O.3     1  UNL1       -0.4654
     19 C         138.3210  143.5238  155.1187 C.3     1  UNL1        0.2528
     20 C         139.8733  139.1832  164.5319 C.ar    1  UNL1        0.0014
     21 C         140.7958  139.9724  165.4128 C.ar    1  UNL1        0.0032
     22 C         140.4635  140.1686  166.8623 C.ar    1  UNL1        0.0369
     23 C         139.2086  139.5754  167.4310 C.ar    1  UNL1        0.1384
     24 C         138.2860  138.7861  166.5501 C.ar    1  UNL1        0.0369
     25 C         138.6183  138.5900  165.1006 C.ar    1  UNL1        0.0032
     26 O         138.8762  139.7716  168.8804 O.3     1  UNL1       -0.4791
     27 C         139.8254  140.5138  169.7737 C.3     1  UNL1        0.1687
     28 C         139.5746  141.9560  170.1013 C.3     1  UNL1        0.0606
     29 C         140.5239  142.6982  170.9946 C.3     1  UNL1        0.0723
     30 N         141.7239  141.9983  171.5604 N.3     1  UNL1       -0.2973
     31 C         141.9747  140.5562  171.2328 C.3     1  UNL1        0.0723
     32 C         141.0255  139.8139  170.3396 C.3     1  UNL1        0.0606
     33 H         141.6498  142.0611  172.5758 H       1  UNL1        0.1233
@<TRIPOS>BOND
     1    14    15    1
     2    15     8    1
     3     8     9   ar
     4     9    10   ar
     5    10     1    1
     6     1     2   ar
     7     2     3   ar
     8     3     4   ar
     9     4     5   ar
    10     5    20    1
    11    20    21   ar
    12    21    22   ar
    13    22    23   ar
    14    23    26    1
    15    26    27    1
    16    27    28    1
    17    28    29    1
    18    29    30    1
    19    30    31    1
    20    31    32    1
    21    23    24   ar
    22    24    25   ar
    23     5     6   ar
    24     6     7    1
    25    10    11   ar
    26    11    12   ar
    27    12    16    1
    28    16    17    1
    29    12    13   ar
    30    13    18    1
    31    18    19    1
    32    13     8   ar
    33     6     1   ar
    34    25    20   ar
    35    32    27    1
    36    30    33    1
@<TRIPOS>MOLECULE
*****
 33 36 0 0 0
SMALL
GASTEIGER

@<TRIPOS>ATOM
      1 C         142.5057  140.1708  160.2066 C.ar    1  UNL1        0.0154
      2 C         143.5142  141.1860  159.7568 C.ar    1  UNL1        0.0985
      3 N         144.4214  141.8367  160.7585 N.ar    1  UNL1       -0.2423
      4 C         144.3202  141.4722  162.2101 C.ar    1  UNL1        0.0985
      5 C         143.3118  140.4570  162.6598 C.ar    1  UNL1        0.0152
      6 C         142.4045  139.8063  161.6581 C.ar    1  UNL1       -0.0188
      7 C         141.3960  138.7910  162.1079 C.3     1  UNL1        0.0311
      8 C         141.1573  137.6649  157.4403 C.ar    1  UNL1        0.1754
      9 C         142.0645  138.3156  158.4420 C.ar    1  UNL1        0.0403
     10 C         141.5984  139.5201  159.2048 C.ar    1  UNL1        0.0074
     11 C         140.2250  140.0739  158.9659 C.ar    1  UNL1        0.0403
     12 C         139.3178  139.4232  157.9641 C.ar    1  UNL1        0.1754
     13 C         139.7840  138.2187  157.2013 C.ar    1  UNL1        0.2061
     14 C         142.9874  135.8916  156.9343 C.3     1  UNL1        0.2526
     15 O         141.6234  136.4603  156.6775 O.3     1  UNL1       -0.4683
     16 O         137.9444  139.9771  157.7251 O.3     1  UNL1       -0.4683
     17 C         137.7070  140.9305  156.5918 C.3     1  UNL1        0.2526
     18 O         138.8767  137.5680  156.1996 O.3     1  UNL1       -0.4654
     19 C         139.0100  137.8969  154.7421 C.3     1  UNL1        0.2528
     20 C         143.2106  140.0924  164.1113 C.ar    1  UNL1        0.0014
     21 C         143.8964  138.8613  164.6250 C.ar    1  UNL1        0.0032
     22 C         143.7952  138.4967  166.0765 C.ar    1  UNL1        0.0369
     23 C         143.0082  139.3633  167.0143 C.ar    1  UNL1        0.1384
     24 C         142.3223  140.5945  166.5006 C.ar    1  UNL1        0.0369
     25 C         142.4235  140.9590  165.0492 C.ar    1  UNL1        0.0032
     26 O         142.9070  138.9988  168.4658 O.3     1  UNL1       -0.4791
     27 C         142.3654  139.9906  169.4521 C.3     1  UNL1        0.1687
     28 C         141.0312  139.7558  170.0963 C.3     1  UNL1        0.0606
     29 C         140.4897  140.7477  171.0827 C.3     1  UNL1        0.0723
     30 N         141.2822  141.9743  171.4249 N.3     1  UNL1       -0.2973
     31 C         142.6164  142.2092  170.7807 C.3     1  UNL1        0.0723
     32 C         143.1580  141.2173  169.7944 C.3     1  UNL1        0.0606
     33 H         141.4417  141.9504  172.4321 H       1  UNL1        0.1233
@<TRIPOS>BOND
     1    14    15    1
     2    15     8    1
     3     8     9   ar
     4     9    10   ar
     5    10     1    1
     6     1     2   ar
     7     2     3   ar
     8     3     4   ar
     9     4     5   ar
    10     5    20    1
    11    20    21   ar
    12    21    22   ar
    13    22    23   ar
    14    23    26    1
    15    26    27    1
    16    27    28    1
    17    28    29    1
    18    29    30    1
    19    30    31    1
    20    31    32    1
    21    23    24   ar
    22    24    25   ar
    23     5     6   ar
    24     6     7    1
    25    10    11   ar
    26    11    12   ar
    27    12    16    1
    28    16    17    1
    29    12    13   ar
    30    13    18    1
    31    18    19    1
    32    13     8   ar
    33     6     1   ar
    34    25    20   ar
    35    32    27    1
    36    30    33    1
@<TRIPOS>MOLECULE
*****
 33 36 0 0 0
SMALL
GASTEIGER

@<TRIPOS>ATOM
      1 C         142.9382  142.8815  159.7947 C.ar    1  UNL1        0.0154
      2 C         142.1392  144.0841  159.3879 C.ar    1  UNL1        0.0985
      3 N         141.5281  144.9677  160.4347 N.ar    1  UNL1       -0.2423
      4 C         141.7160  144.6488  161.8883 C.ar    1  UNL1        0.0985
      5 C         142.5149  143.4462  162.2952 C.ar    1  UNL1        0.0152
      6 C         143.1260  142.5626  161.2483 C.ar    1  UNL1       -0.0188
      7 C         143.9250  141.3600  161.6551 C.3     1  UNL1        0.0311
      8 C         143.4687  139.8478  157.2918 C.ar    1  UNL1        0.1754
      9 C         142.8577  140.7314  158.3385 C.ar    1  UNL1        0.0403
     10 C         143.5493  141.9979  158.7479 C.ar    1  UNL1        0.0074
     11 C         144.8520  142.3808  158.1105 C.ar    1  UNL1        0.0403
     12 C         145.4630  141.4972  157.0637 C.ar    1  UNL1        0.1754
     13 C         144.7714  140.2307  156.6543 C.ar    1  UNL1        0.2061
     14 C         142.6685  137.4397  157.8494 C.3     1  UNL1        0.2526
     15 O         142.7771  138.5813  156.8824 O.3     1  UNL1       -0.4683
     16 O         146.7658  141.8801  156.4262 O.3     1  UNL1       -0.4683
     17 C         147.6717  142.8648  157.1041 C.3     1  UNL1        0.2526
     18 O         145.3825  139.3471  155.6075 O.3     1  UNL1       -0.4654
     19 C         144.9591  139.4788  154.1745 C.3     1  UNL1        0.2528
     20 C         142.7028  143.1272  163.7487 C.ar    1  UNL1        0.0014
     21 C         141.6376  142.3816  164.4967 C.ar    1  UNL1        0.0032
     22 C         141.8254  142.0626  165.9503 C.ar    1  UNL1        0.0369
     23 C         143.0784  142.4893  166.6560 C.ar    1  UNL1        0.1384
     24 C         144.1436  143.2349  165.9080 C.ar    1  UNL1        0.0369
     25 C         143.9558  143.5539  164.4544 C.ar    1  UNL1        0.0032
     26 O         143.2663  142.1703  168.1095 O.3     1  UNL1       -0.4791
     27 C         142.0744  141.8901  168.9760 C.3     1  UNL1        0.1687
     28 C         141.2448  143.0247  169.5001 C.3     1  UNL1        0.0606
     29 C         140.0529  142.7444  170.3666 C.3     1  UNL1        0.0723
     30 N         139.6905  141.3297  170.7089 N.3     1  UNL1       -0.2973
     31 C         140.5200  140.1952  170.1848 C.3     1  UNL1        0.0723
     32 C         141.7119  140.4754  169.3183 C.3     1  UNL1        0.0606
     33 H         138.7396  141.1795  170.3718 H       1  UNL1        0.1233
@<TRIPOS>BOND
     1    14    15    1
     2    15     8    1
     3     8     9   ar
     4     9    10   ar
     5    10     1    1
     6     1     2   ar
     7     2     3   ar
     8     3     4   ar
     9     4     5   ar
    10     5    20    1
    11    20    21   ar
    12    21    22   ar
    13    22    23   ar
    14    23    26    1
    15    26    27    1
    16    27    28    1
    17    28    29    1
    18    29    30    1
    19    30    31    1
    20    31    32    1
    21    23    24   ar
    22    24    25   ar
    23     5     6   ar
    24     6     7    1
    25    10    11   ar
    26    11    12   ar
    27    12    16    1
    28    16    17    1
    29    12    13   ar
    30    13    18    1
    31    18    19    1
    32    13     8   ar
    33     6     1   ar
    34    25    20   ar
    35    32    27    1
    36    30    33    1
@<TRIPOS>MOLECULE
*****
 33 36 0 0 0
SMALL
GASTEIGER

@<TRIPOS>ATOM
      1 C         142.8189  140.0074  160.1179 C.ar    1  UNL1        0.0154
      2 C         143.6286  141.2061  159.7210 C.ar    1  UNL1        0.0985
      3 N         144.3074  142.0339  160.7717 N.ar    1  UNL1       -0.2423
      4 C         144.1766  141.6630  162.2192 C.ar    1  UNL1        0.0985
      5 C         143.3669  140.4643  162.6161 C.ar    1  UNL1        0.0152
      6 C         142.6880  139.6364  161.5653 C.ar    1  UNL1       -0.0188
      7 C         141.8783  138.4377  161.9622 C.3     1  UNL1        0.0311
      8 C         140.0864  138.7208  157.5433 C.ar    1  UNL1        0.1754
      9 C         140.7653  139.5485  158.5940 C.ar    1  UNL1        0.0403
     10 C         142.1400  139.1795  159.0671 C.ar    1  UNL1        0.0074
     11 C         142.8360  137.9829  158.4896 C.ar    1  UNL1        0.0403
     12 C         142.1571  137.1551  157.4389 C.ar    1  UNL1        0.1754
     13 C         140.7823  137.5241  156.9658 C.ar    1  UNL1        0.2061
     14 C         138.5423  140.0823  155.9584 C.3     1  UNL1        0.2526
     15 O         138.7116  139.0897  157.0702 O.3     1  UNL1       -0.4683
     16 O         142.8530  135.9584  156.8613 O.3     1  UNL1       -0.4683
     17 C         143.7989  136.1245  155.7091 C.3     1  UNL1        0.2526
     18 O         140.1035  136.6963  155.9150 O.3     1  UNL1       -0.4654
     19 C         140.2795  137.0344  154.4643 C.3     1  UNL1        0.2528
     20 C         143.2360  140.0933  164.0636 C.ar    1  UNL1        0.0014
     21 C         144.1094  139.0215  164.6450 C.ar    1  UNL1        0.0032
     22 C         143.9786  138.6505  166.0926 C.ar    1  UNL1        0.0369
     23 C         142.9743  139.3515  166.9586 C.ar    1  UNL1        0.1384
     24 C         142.1008  140.4234  166.3771 C.ar    1  UNL1        0.0369
     25 C         142.2317  140.7943  164.9296 C.ar    1  UNL1        0.0032
     26 O         142.8434  138.9806  168.4061 O.3     1  UNL1       -0.4791
     27 C         142.3780  140.0006  169.4025 C.3     1  UNL1        0.1687
     28 C         141.1147  139.7699  170.1776 C.3     1  UNL1        0.0606
     29 C         140.6493  140.7900  171.1741 C.3     1  UNL1        0.0723
     30 N         141.4472  142.0407  171.3954 N.3     1  UNL1       -0.2973
     31 C         142.7105  142.2714  170.6203 C.3     1  UNL1        0.0723
     32 C         143.1759  141.2514  169.6239 C.3     1  UNL1        0.0606
     33 H         141.7007  142.0573  172.3833 H       1  UNL1        0.1233
@<TRIPOS>BOND
     1    14    15    1
     2    15     8    1
     3     8     9   ar
     4     9    10   ar
     5    10     1    1
     6     1     2   ar
     7     2     3   ar
     8     3     4   ar
     9     4     5   ar
    10     5    20    1
    11    20    21   ar
    12    21    22   ar
    13    22    23   ar
    14    23    26    1
    15    26    27    1
    16    27    28    1
    17    28    29    1
    18    29    30    1
    19    30    31    1
    20    31    32    1
    21    23    24   ar
    22    24    25   ar
    23     5     6   ar
    24     6     7    1
    25    10    11   ar
    26    11    12   ar
    27    12    16    1
    28    16    17    1
    29    12    13   ar
    30    13    18    1
    31    18    19    1
    32    13     8   ar
    33     6     1   ar
    34    25    20   ar
    35    32    27    1
    36    30    33    1
@<TRIPOS>MOLECULE
*****
 33 36 0 0 0
SMALL
GASTEIGER

@<TRIPOS>ATOM
      1 C         140.4257  140.7873  160.7440 C.ar    1  UNL1        0.0154
      2 C         139.7601  139.5846  160.1435 C.ar    1  UNL1        0.0985
      3 N         139.6382  138.3192  160.9396 N.ar    1  UNL1       -0.2423
      4 C         140.1819  138.2564  162.3363 C.ar    1  UNL1        0.0985
      5 C         140.8474  139.4591  162.9367 C.ar    1  UNL1        0.0152
      6 C         140.9693  140.7246  162.1405 C.ar    1  UNL1       -0.0188
      7 C         141.6349  141.9272  162.7410 C.3     1  UNL1        0.0311
      8 C         140.1766  144.6144  159.7234 C.ar    1  UNL1        0.1754
      9 C         140.0548  143.3489  160.5195 C.ar    1  UNL1        0.0403
     10 C         140.5476  142.0527  159.9478 C.ar    1  UNL1        0.0074
     11 C         141.1623  142.0219  158.5799 C.ar    1  UNL1        0.0403
     12 C         141.2842  143.2873  157.7838 C.ar    1  UNL1        0.1754
     13 C         140.7913  144.5835  158.3556 C.ar    1  UNL1        0.2061
     14 C         139.7506  146.1515  161.7742 C.3     1  UNL1        0.2526
     15 O         139.6838  145.9106  160.2952 O.3     1  UNL1       -0.4683
     16 O         141.8989  143.2566  156.4158 O.3     1  UNL1       -0.4683
     17 C         141.1004  142.7636  155.2457 C.3     1  UNL1        0.2526
     18 O         140.9132  145.8490  157.5594 O.3     1  UNL1       -0.4654
     19 C         139.8314  146.2354  156.5948 C.3     1  UNL1        0.2528
     20 C         141.3911  139.3964  164.3333 C.ar    1  UNL1        0.0014
     21 C         140.5581  139.8766  165.4846 C.ar    1  UNL1        0.0032
     22 C         141.1018  139.8139  166.8813 C.ar    1  UNL1        0.0369
     23 C         142.4784  139.2710  167.1265 C.ar    1  UNL1        0.1384
     24 C         143.3114  138.7908  165.9751 C.ar    1  UNL1        0.0369
     25 C         142.7677  138.8535  164.5786 C.ar    1  UNL1        0.0032
     26 O         143.0220  139.2082  168.5231 O.3     1  UNL1       -0.4791
     27 C         142.6461  140.2620  169.5222 C.3     1  UNL1        0.1687
     28 C         141.5517  139.9990  170.5138 C.3     1  UNL1        0.0606
     29 C         141.1758  141.0529  171.5129 C.3     1  UNL1        0.0723
     30 N         141.8943  142.3695  171.5205 N.3     1  UNL1       -0.2973
     31 C         142.9887  142.6325  170.5290 C.3     1  UNL1        0.0723
     32 C         143.3646  141.5787  169.5298 C.3     1  UNL1        0.0606
     33 H         142.3056  142.4752  172.4479 H       1  UNL1        0.1233
@<TRIPOS>BOND
     1    14    15    1
     2    15     8    1
     3     8     9   ar
     4     9    10   ar
     5    10     1    1
     6     1     2   ar
     7     2     3   ar
     8     3     4   ar
     9     4     5   ar
    10     5    20    1
    11    20    21   ar
    12    21    22   ar
    13    22    23   ar
    14    23    26    1
    15    26    27    1
    16    27    28    1
    17    28    29    1
    18    29    30    1
    19    30    31    1
    20    31    32    1
    21    23    24   ar
    22    24    25   ar
    23     5     6   ar
    24     6     7    1
    25    10    11   ar
    26    11    12   ar
    27    12    16    1
    28    16    17    1
    29    12    13   ar
    30    13    18    1
    31    18    19    1
    32    13     8   ar
    33     6     1   ar
    34    25    20   ar
    35    32    27    1
    36    30    33    1
