@<TRIPOS>MOLECULE
*****
 40 43 0 0 0
SMALL
GASTEIGER

@<TRIPOS>ATOM
      1 C         143.8329  142.9706  159.0636 C.ar    1  UNL1        0.0655
      2 C         144.5377  142.8280  160.3800 C.ar    1  UNL1        0.0337
      3 C         143.8267  143.1789  161.6534 C.ar    1  UNL1        0.0862
      4 C         142.4110  143.6726  161.6103 C.ar    1  UNL1        0.1534
      5 C         141.7061  143.8153  160.2938 C.ar    1  UNL1        0.0539
      6 C         142.4171  143.4643  159.0205 C.ar    1  UNL1        0.0647
      7 C         144.7841  141.1817  157.4373 C.2     1  UNL1        0.2497
      8 O         144.4922  140.3035  158.0197 O.2     1  UNL1       -0.2698
      9 N         144.5439  142.6196  157.7903 N.am    1  UNL1       -0.2794
     10 H         144.8529  143.3330  157.1863 H       1  UNL1        0.1552
     11 C         144.8629  141.1453  154.8407 C.2     1  UNL1        0.0048
     12 C         145.4951  140.8306  156.1640 C.2     1  UNL1        0.0580
     13 N         144.5316  143.0362  162.9697 N.pl3   1  UNL1       -0.2801
     14 H         145.1406  143.7442  163.2813 H       1  UNL1        0.1552
     15 C         144.3085  141.8148  163.8114 C.ar    1  UNL1        0.2207
     16 N         145.2418  140.6459  163.6990 N.ar    1  UNL1       -0.2123
     17 C         145.0188  139.4245  164.5407 C.ar    1  UNL1        0.0990
     18 C         143.8625  139.3721  165.4948 C.ar    1  UNL1        0.0151
     19 C         143.6394  138.1507  166.3365 C.3     1  UNL1        0.0342
     20 C         142.9292  140.5411  165.6072 C.ar    1  UNL1        0.0832
     21 N         143.1522  141.7624  164.7655 N.ar    1  UNL1       -0.2138
     22 C         141.7729  140.4886  166.5612 C.ar    1  UNL1        0.0361
     23 C         141.6690  141.2279  167.8622 C.ar    1  UNL1        0.0774
     24 N         140.3494  140.8838  168.4868 N.ar    1  UNL1       -0.3240
     25 C         139.8322  141.4009  169.7965 C.3     1  UNL1        0.1305
     26 C         139.6376  139.9318  167.5719 C.ar    1  UNL1        0.0600
     27 C         138.3021  139.2558  167.6686 C.ar    1  UNL1        0.0172
     28 C         137.8464  138.3356  166.5753 C.ar    1  UNL1        0.0015
     29 C         138.7262  138.0913  165.3852 C.ar    1  UNL1        0.0001
     30 C         140.0617  138.7673  165.2884 C.ar    1  UNL1        0.0015
     31 C         140.5174  139.6876  166.3818 C.ar    1  UNL1        0.0187
     32 O         141.6999  144.0236  162.8836 O.3     1  UNL1       -0.4701
     33 C         141.9103  145.3684  163.5138 C.3     1  UNL1        0.2525
     34 N         141.7123  143.6070  157.7042 N.pl3   1  UNL1       -0.3033
     35 C         141.1703  142.8285  157.1601 C.3     1  UNL1        0.1123
     36 C         141.7061  144.9294  156.9961 C.3     1  UNL1        0.1082
     37 C         140.5720  145.8881  157.2077 C.3     1  UNL1        0.0938
     38 N         139.6862  146.2673  156.0582 N.3     1  UNL1       -0.2688
     39 C         139.4823  145.3107  154.9210 C.3     1  UNL1        0.0897
     40 C         139.0042  147.6032  156.0458 C.3     1  UNL1        0.0897
@<TRIPOS>BOND
     1    11    12    2
     2    12     7    1
     3     7     8    2
     4     7     9   am
     5     9     1    1
     6     1     2   ar
     7     2     3   ar
     8     3    13    1
     9    13    15    1
    10    15    16   ar
    11    16    17   ar
    12    17    18   ar
    13    18    19    1
    14    18    20   ar
    15    20    22    1
    16    22    23   ar
    17    23    24   ar
    18    24    25    1
    19    24    26   ar
    20    26    27   ar
    21    27    28   ar
    22    28    29   ar
    23    29    30   ar
    24    30    31   ar
    25    20    21   ar
    26     3     4   ar
    27     4    32    1
    28    32    33    1
    29     4     5   ar
    30     5     6   ar
    31     6    34    1
    32    34    35    1
    33    34    36    1
    34    36    37    1
    35    37    38    1
    36    38    39    1
    37    38    40    1
    38     6     1   ar
    39    21    15   ar
    40    31    22   ar
    41    31    26   ar
    42     9    10    1
    43    13    14    1
@<TRIPOS>MOLECULE
*****
 40 43 0 0 0
SMALL
GASTEIGER

@<TRIPOS>ATOM
      1 C         143.9190  142.9533  158.9865 C.ar    1  UNL1        0.0655
      2 C         144.6092  142.8014  160.3096 C.ar    1  UNL1        0.0337
      3 C         143.8816  143.1359  161.5780 C.ar    1  UNL1        0.0862
      4 C         142.4637  143.6222  161.5232 C.ar    1  UNL1        0.1534
      5 C         141.7734  143.7741  160.2000 C.ar    1  UNL1        0.0539
      6 C         142.5011  143.4397  158.9317 C.ar    1  UNL1        0.0647
      7 C         144.8781  141.1854  157.3421 C.2     1  UNL1        0.2497
      8 O         144.5683  140.2994  157.9032 O.2     1  UNL1       -0.2698
      9 N         144.6467  142.6188  157.7182 N.am    1  UNL1       -0.2794
     10 H         144.9724  143.3402  157.1326 H       1  UNL1        0.1552
     11 C         146.8546  141.5961  155.7066 C.2     1  UNL1        0.0048
     12 C         145.6058  140.8508  156.0738 C.2     1  UNL1        0.0580
     13 N         144.5718  142.9840  162.9010 N.pl3   1  UNL1       -0.2801
     14 H         145.1851  143.6851  163.2195 H       1  UNL1        0.1552
     15 C         144.3277  141.7638  163.7386 C.ar    1  UNL1        0.2207
     16 N         145.2312  140.5733  163.6107 N.ar    1  UNL1       -0.2123
     17 C         144.9871  139.3532  164.4484 C.ar    1  UNL1        0.0990
     18 C         143.8395  139.3235  165.4139 C.ar    1  UNL1        0.0151
     19 C         143.5954  138.1034  166.2515 C.3     1  UNL1        0.0342
     20 C         142.9360  140.5142  165.5417 C.ar    1  UNL1        0.0832
     21 N         143.1801  141.7342  164.7041 N.ar    1  UNL1       -0.2138
     22 C         141.7884  140.4845  166.5072 C.ar    1  UNL1        0.0361
     23 C         141.7045  141.2399  167.8005 C.ar    1  UNL1        0.0774
     24 N         140.3875  140.9165  168.4415 N.ar    1  UNL1       -0.3240
     25 C         139.8882  141.4539  169.7498 C.3     1  UNL1        0.1305
     26 C         139.6574  139.9613  167.5444 C.ar    1  UNL1        0.0600
     27 C         138.3161  139.3002  167.6617 C.ar    1  UNL1        0.0172
     28 C         137.8407  138.3721  166.5835 C.ar    1  UNL1        0.0015
     29 C         138.7065  138.1052  165.3881 C.ar    1  UNL1        0.0001
     30 C         140.0478  138.7663  165.2708 C.ar    1  UNL1        0.0015
     31 C         140.5233  139.6944  166.3490 C.ar    1  UNL1        0.0187
     32 O         141.7360  143.9567  162.7915 O.3     1  UNL1       -0.4701
     33 C         141.9298  145.2971  163.4363 C.3     1  UNL1        0.2525
     34 N         141.8108  143.5916  157.6087 N.pl3   1  UNL1       -0.3033
     35 C         141.7615  144.4932  156.9919 C.3     1  UNL1        0.1123
     36 C         141.0886  142.4257  157.0013 C.3     1  UNL1        0.1082
     37 C         140.9148  141.1594  157.7864 C.3     1  UNL1        0.0938
     38 N         139.7021  140.9725  158.6492 N.3     1  UNL1       -0.2688
     39 C         138.7031  142.0825  158.7896 C.3     1  UNL1        0.0897
     40 C         139.4884  139.6754  159.3717 C.3     1  UNL1        0.0897
@<TRIPOS>BOND
     1    11    12    2
     2    12     7    1
     3     7     8    2
     4     7     9   am
     5     9     1    1
     6     1     2   ar
     7     2     3   ar
     8     3    13    1
     9    13    15    1
    10    15    16   ar
    11    16    17   ar
    12    17    18   ar
    13    18    19    1
    14    18    20   ar
    15    20    22    1
    16    22    23   ar
    17    23    24   ar
    18    24    25    1
    19    24    26   ar
    20    26    27   ar
    21    27    28   ar
    22    28    29   ar
    23    29    30   ar
    24    30    31   ar
    25    20    21   ar
    26     3     4   ar
    27     4    32    1
    28    32    33    1
    29     4     5   ar
    30     5     6   ar
    31     6    34    1
    32    34    35    1
    33    34    36    1
    34    36    37    1
    35    37    38    1
    36    38    39    1
    37    38    40    1
    38     6     1   ar
    39    21    15   ar
    40    31    22   ar
    41    31    26   ar
    42     9    10    1
    43    13    14    1
@<TRIPOS>MOLECULE
*****
 40 43 0 0 0
SMALL
GASTEIGER

@<TRIPOS>ATOM
      1 C         138.7079  140.2074  158.2385 C.ar    1  UNL1        0.0655
      2 C         138.0529  140.4237  159.5705 C.ar    1  UNL1        0.0337
      3 C         138.4109  139.5468  160.7336 C.ar    1  UNL1        0.0862
      4 C         139.4239  138.4535  160.5647 C.ar    1  UNL1        0.1534
      5 C         140.0789  138.2371  159.2326 C.ar    1  UNL1        0.0539
      6 C         139.7209  139.1141  158.0695 C.ar    1  UNL1        0.0647
      7 C         136.9662  141.0366  156.4981 C.2     1  UNL1        0.2497
      8 O         136.1348  140.4102  156.8326 O.2     1  UNL1       -0.2698
      9 N         138.3498  141.0844  157.0754 N.am    1  UNL1       -0.2794
     10 H         139.0230  141.6913  156.6909 H       1  UNL1        0.1552
     11 C         136.6433  143.4060  155.4821 C.2     1  UNL1        0.0048
     12 C         136.6081  141.9136  155.3351 C.2     1  UNL1        0.0580
     13 N         137.7559  139.7632  162.0655 N.pl3   1  UNL1       -0.2801
     14 H         137.1284  139.0926  162.4202 H       1  UNL1        0.1552
     15 C         138.0569  141.0012  162.8571 C.ar    1  UNL1        0.2207
     16 N         137.0476  142.1084  162.9304 N.ar    1  UNL1       -0.2123
     17 C         137.3486  143.3464  163.7220 C.ar    1  UNL1        0.0990
     18 C         138.6589  143.4773  164.4403 C.ar    1  UNL1        0.0151
     19 C         138.9599  144.7154  165.2318 C.3     1  UNL1        0.0342
     20 C         139.6683  142.3701  164.3670 C.ar    1  UNL1        0.0832
     21 N         139.3673  141.1321  163.5754 N.ar    1  UNL1       -0.2138
     22 C         140.9786  142.5009  165.0852 C.ar    1  UNL1        0.0361
     23 C         142.2751  142.9506  164.4794 C.ar    1  UNL1        0.0774
     24 N         143.3202  142.9327  165.5552 N.ar    1  UNL1       -0.3240
     25 C         144.7627  143.3094  165.3895 C.3     1  UNL1        0.1305
     26 C         142.6697  142.4719  166.8259 C.ar    1  UNL1        0.0600
     27 C         143.2082  142.2609  168.2099 C.ar    1  UNL1        0.0172
     28 C         142.2995  141.7830  169.3034 C.ar    1  UNL1        0.0015
     29 C         140.8523  141.5161  169.0129 C.ar    1  UNL1        0.0001
     30 C         140.3138  141.7272  167.6289 C.ar    1  UNL1        0.0015
     31 C         141.2225  142.2051  166.5354 C.ar    1  UNL1        0.0187
     32 O         139.7819  137.5765  161.7277 O.3     1  UNL1       -0.4701
     33 C         141.0930  137.7632  162.4322 C.3     1  UNL1        0.2525
     34 N         140.3758  138.8977  156.7376 N.pl3   1  UNL1       -0.3033
     35 C         140.0363  138.2344  155.9372 C.3     1  UNL1        0.1123
     36 C         141.6358  139.6349  156.3928 C.3     1  UNL1        0.1082
     37 C         142.9590  139.1314  156.8886 C.3     1  UNL1        0.0938
     38 N         143.7250  138.1210  156.0871 N.3     1  UNL1       -0.2688
     39 C         143.4387  136.6581  156.2541 C.3     1  UNL1        0.0897
     40 C         144.7773  138.5735  155.1188 C.3     1  UNL1        0.0897
@<TRIPOS>BOND
     1    11    12    2
     2    12     7    1
     3     7     8    2
     4     7     9   am
     5     9     1    1
     6     1     2   ar
     7     2     3   ar
     8     3    13    1
     9    13    15    1
    10    15    16   ar
    11    16    17   ar
    12    17    18   ar
    13    18    19    1
    14    18    20   ar
    15    20    22    1
    16    22    23   ar
    17    23    24   ar
    18    24    25    1
    19    24    26   ar
    20    26    27   ar
    21    27    28   ar
    22    28    29   ar
    23    29    30   ar
    24    30    31   ar
    25    20    21   ar
    26     3     4   ar
    27     4    32    1
    28    32    33    1
    29     4     5   ar
    30     5     6   ar
    31     6    34    1
    32    34    35    1
    33    34    36    1
    34    36    37    1
    35    37    38    1
    36    38    39    1
    37    38    40    1
    38     6     1   ar
    39    21    15   ar
    40    31    22   ar
    41    31    26   ar
    42     9    10    1
    43    13    14    1
@<TRIPOS>MOLECULE
*****
 40 43 0 0 0
SMALL
GASTEIGER

@<TRIPOS>ATOM
      1 C         138.4612  140.2507  158.2557 C.ar    1  UNL1        0.0655
      2 C         137.8787  140.4139  159.6283 C.ar    1  UNL1        0.0337
      3 C         138.3341  139.5244  160.7470 C.ar    1  UNL1        0.0862
      4 C         139.3719  138.4716  160.4930 C.ar    1  UNL1        0.1534
      5 C         139.9544  138.3084  159.1203 C.ar    1  UNL1        0.0539
      6 C         139.4990  139.1980  158.0017 C.ar    1  UNL1        0.0647
      7 C         136.6096  141.0179  156.6025 C.2     1  UNL1        0.2497
      8 O         135.8340  140.3252  156.9402 O.2     1  UNL1       -0.2698
      9 N         138.0058  141.1403  157.1370 N.am    1  UNL1       -0.2794
     10 H         138.6232  141.8044  156.7537 H       1  UNL1        0.1552
     11 C         134.9093  141.5713  154.7176 C.2     1  UNL1        0.0048
     12 C         136.1541  141.9075  155.4839 C.2     1  UNL1        0.0580
     13 N         137.7516  139.6877  162.1195 N.pl3   1  UNL1       -0.2801
     14 H         137.1843  138.9792  162.5010 H       1  UNL1        0.1552
     15 C         138.0334  140.9303  162.9110 C.ar    1  UNL1        0.2207
     16 N         137.0060  142.0206  162.9864 N.ar    1  UNL1       -0.2123
     17 C         137.2879  143.2632  163.7779 C.ar    1  UNL1        0.0990
     18 C         138.5971  143.4155  164.4939 C.ar    1  UNL1        0.0151
     19 C         138.8789  144.6582  165.2854 C.3     1  UNL1        0.0342
     20 C         139.6245  142.3252  164.4185 C.ar    1  UNL1        0.0832
     21 N         139.3426  141.0826  163.6271 N.ar    1  UNL1       -0.2138
     22 C         140.9337  142.4775  165.1346 C.ar    1  UNL1        0.0361
     23 C         142.2000  143.0287  164.5492 C.ar    1  UNL1        0.0774
     24 N         143.2553  142.9972  165.6146 N.ar    1  UNL1       -0.3240
     25 C         144.6754  143.4558  165.4628 C.3     1  UNL1        0.1305
     26 C         142.6413  142.4265  166.8586 C.ar    1  UNL1        0.0600
     27 C         143.2034  142.1579  168.2230 C.ar    1  UNL1        0.0172
     28 C         142.3306  141.5680  169.2909 C.ar    1  UNL1        0.0015
     29 C         140.8958  141.2468  168.9942 C.ar    1  UNL1        0.0001
     30 C         140.3337  141.5155  167.6297 C.ar    1  UNL1        0.0015
     31 C         141.2065  142.1053  166.5619 C.ar    1  UNL1        0.0187
     32 O         139.8273  137.5821  161.6116 O.3     1  UNL1       -0.4701
     33 C         141.0366  137.9513  162.4187 C.3     1  UNL1        0.2525
     34 N         140.0815  139.0347  156.6291 N.pl3   1  UNL1       -0.3033
     35 C         140.7880  139.7039  156.1301 C.3     1  UNL1        0.1123
     36 C         139.7021  137.8512  155.7892 C.3     1  UNL1        0.1082
     37 C         140.7562  137.1021  155.0292 C.3     1  UNL1        0.0938
     38 N         141.5276  136.0048  155.7006 N.3     1  UNL1       -0.2688
     39 C         142.4814  136.3298  156.8117 C.3     1  UNL1        0.0897
     40 C         141.3453  134.5823  155.2609 C.3     1  UNL1        0.0897
@<TRIPOS>BOND
     1    11    12    2
     2    12     7    1
     3     7     8    2
     4     7     9   am
     5     9     1    1
     6     1     2   ar
     7     2     3   ar
     8     3    13    1
     9    13    15    1
    10    15    16   ar
    11    16    17   ar
    12    17    18   ar
    13    18    19    1
    14    18    20   ar
    15    20    22    1
    16    22    23   ar
    17    23    24   ar
    18    24    25    1
    19    24    26   ar
    20    26    27   ar
    21    27    28   ar
    22    28    29   ar
    23    29    30   ar
    24    30    31   ar
    25    20    21   ar
    26     3     4   ar
    27     4    32    1
    28    32    33    1
    29     4     5   ar
    30     5     6   ar
    31     6    34    1
    32    34    35    1
    33    34    36    1
    34    36    37    1
    35    37    38    1
    36    38    39    1
    37    38    40    1
    38     6     1   ar
    39    21    15   ar
    40    31    22   ar
    41    31    26   ar
    42     9    10    1
    43    13    14    1
@<TRIPOS>MOLECULE
*****
 40 43 0 0 0
SMALL
GASTEIGER

@<TRIPOS>ATOM
      1 C         141.5943  137.9451  161.5230 C.ar    1  UNL1        0.0655
      2 C         142.5871  137.8580  160.4019 C.ar    1  UNL1        0.0337
      3 C         142.1993  138.2962  159.0207 C.ar    1  UNL1        0.0862
      4 C         140.8186  138.8215  158.7606 C.ar    1  UNL1        0.1534
      5 C         139.8257  138.9086  159.8817 C.ar    1  UNL1        0.0539
      6 C         140.2136  138.4704  161.2628 C.ar    1  UNL1        0.0647
      7 C         142.5018  138.5100  163.8908 C.2     1  UNL1        0.2497
      8 O         142.6438  139.5818  163.7271 O.2     1  UNL1       -0.2698
      9 N         141.9822  137.5069  162.9041 N.am    1  UNL1       -0.2794
     10 H         141.8957  136.5610  163.1629 H       1  UNL1        0.1552
     11 C         142.7668  139.0252  166.4236 C.2     1  UNL1        0.0048
     12 C         142.8898  138.0719  165.2720 C.2     1  UNL1        0.0580
     13 N         143.1921  138.2090  157.8998 N.pl3   1  UNL1       -0.2801
     14 H         144.0444  138.6984  157.9580 H       1  UNL1        0.1552
     15 C         142.8865  137.3764  156.6901 C.ar    1  UNL1        0.2207
     16 N         142.7037  138.0333  155.3541 N.ar    1  UNL1       -0.2123
     17 C         142.3981  137.2007  154.1445 C.ar    1  UNL1        0.0990
     18 C         142.2753  135.7111  154.2709 C.ar    1  UNL1        0.0151
     19 C         141.9696  134.8784  153.0612 C.3     1  UNL1        0.0342
     20 C         142.4580  135.0541  155.6070 C.ar    1  UNL1        0.0832
     21 N         142.7637  135.8868  156.8165 N.ar    1  UNL1       -0.2138
     22 C         142.3352  133.5645  155.7334 C.ar    1  UNL1        0.0361
     23 C         141.2783  132.7100  155.0987 C.ar    1  UNL1        0.0774
     24 N         141.5376  131.2852  155.4897 N.ar    1  UNL1       -0.3240
     25 C         140.7229  130.0954  155.0769 C.3     1  UNL1        0.1305
     26 C         142.7547  131.2592  156.3660 C.ar    1  UNL1        0.0600
     27 C         143.4778  130.1348  157.0463 C.ar    1  UNL1        0.0172
     28 C         144.6939  130.4191  157.8772 C.ar    1  UNL1        0.0015
     29 C         145.1868  131.8278  158.0278 C.ar    1  UNL1        0.0001
     30 C         144.4637  132.9522  157.3475 C.ar    1  UNL1        0.0015
     31 C         143.2477  132.6679  156.5166 C.ar    1  UNL1        0.0187
     32 O         140.4306  139.2596  157.3795 O.3     1  UNL1       -0.4701
     33 C         140.6452  140.6825  156.9561 C.3     1  UNL1        0.2525
     34 N         139.2207  138.5575  162.3838 N.pl3   1  UNL1       -0.3033
     35 C         138.4974  137.7939  162.6832 C.3     1  UNL1        0.1123
     36 C         139.1521  139.7937  163.2306 C.3     1  UNL1        0.1082
     37 C         138.1002  139.9178  164.2927 C.3     1  UNL1        0.0938
     38 N         138.4808  139.8191  165.7403 N.3     1  UNL1       -0.2688
     39 C         137.8920  138.7391  166.5987 C.3     1  UNL1        0.0897
     40 C         139.4503  140.8004  166.3295 C.3     1  UNL1        0.0897
@<TRIPOS>BOND
     1    11    12    2
     2    12     7    1
     3     7     8    2
     4     7     9   am
     5     9     1    1
     6     1     2   ar
     7     2     3   ar
     8     3    13    1
     9    13    15    1
    10    15    16   ar
    11    16    17   ar
    12    17    18   ar
    13    18    19    1
    14    18    20   ar
    15    20    22    1
    16    22    23   ar
    17    23    24   ar
    18    24    25    1
    19    24    26   ar
    20    26    27   ar
    21    27    28   ar
    22    28    29   ar
    23    29    30   ar
    24    30    31   ar
    25    20    21   ar
    26     3     4   ar
    27     4    32    1
    28    32    33    1
    29     4     5   ar
    30     5     6   ar
    31     6    34    1
    32    34    35    1
    33    34    36    1
    34    36    37    1
    35    37    38    1
    36    38    39    1
    37    38    40    1
    38     6     1   ar
    39    21    15   ar
    40    31    22   ar
    41    31    26   ar
    42     9    10    1
    43    13    14    1
@<TRIPOS>MOLECULE
*****
 40 43 0 0 0
SMALL
GASTEIGER

@<TRIPOS>ATOM
      1 C         142.9832  133.3199  156.5306 C.ar    1  UNL1        0.0655
      2 C         143.3619  134.6895  157.0111 C.ar    1  UNL1        0.0337
      3 C         143.1425  135.8816  156.1276 C.ar    1  UNL1        0.0862
      4 C         142.5444  135.7042  154.7635 C.ar    1  UNL1        0.1534
      5 C         142.1658  134.3345  154.2829 C.ar    1  UNL1        0.0539
      6 C         142.3852  133.1424  155.1665 C.ar    1  UNL1        0.0647
      7 C         144.5006  131.3783  157.3539 C.2     1  UNL1        0.2497
      8 O         145.3588  131.5989  156.7132 O.2     1  UNL1       -0.2698
      9 N         143.2026  132.1278  157.4142 N.am    1  UNL1       -0.2794
     10 H         142.4948  131.8373  158.0338 H       1  UNL1        0.1552
     11 C         143.5912  129.2370  158.5106 C.2     1  UNL1        0.0048
     12 C         144.7201  130.1862  158.2375 C.2     1  UNL1        0.0580
     13 N         143.5211  137.2511  156.6082 N.pl3   1  UNL1       -0.2801
     14 H         144.3069  137.7064  156.2280 H       1  UNL1        0.1552
     15 C         142.7027  137.9270  157.6680 C.ar    1  UNL1        0.2207
     16 N         141.2436  138.1870  157.4369 N.ar    1  UNL1       -0.2123
     17 C         140.4251  138.8629  158.4967 C.ar    1  UNL1        0.0990
     18 C         141.0657  139.2788  159.7877 C.ar    1  UNL1        0.0151
     19 C         140.2473  139.9547  160.8475 C.3     1  UNL1        0.0342
     20 C         142.5249  139.0188  160.0188 C.ar    1  UNL1        0.0832
     21 N         143.3433  138.3430  158.9590 N.ar    1  UNL1       -0.2138
     22 C         143.1656  139.4348  161.3098 C.ar    1  UNL1        0.0361
     23 C         144.2311  140.4784  161.4692 C.ar    1  UNL1        0.0774
     24 N         144.5772  140.5687  162.9259 N.ar    1  UNL1       -0.3240
     25 C         145.5961  141.4858  163.5349 C.3     1  UNL1        0.1305
     26 C         143.7255  139.5809  163.6668 C.ar    1  UNL1        0.0600
     27 C         143.6317  139.2291  165.1219 C.ar    1  UNL1        0.0172
     28 C         142.6654  138.1764  165.5782 C.ar    1  UNL1        0.0015
     29 C         141.7930  137.4756  164.5793 C.ar    1  UNL1        0.0001
     30 C         141.8868  137.8274  163.1242 C.ar    1  UNL1        0.0015
     31 C         142.8531  138.8801  162.6680 C.ar    1  UNL1        0.0187
     32 O         142.3250  136.8963  153.8798 O.3     1  UNL1       -0.4701
     33 C         140.9570  137.4999  153.7607 C.3     1  UNL1        0.2525
     34 N         142.0065  131.7729  154.6859 N.pl3   1  UNL1       -0.3033
     35 C         142.6374  131.0720  154.1321 C.3     1  UNL1        0.1123
     36 C         140.6319  131.2368  154.9557 C.3     1  UNL1        0.1082
     37 C         139.9205  130.4345  153.9068 C.3     1  UNL1        0.0938
     38 N         139.8598  128.9399  154.0187 N.3     1  UNL1       -0.2688
     39 C         140.0724  128.0875  152.8028 C.3     1  UNL1        0.0897
     40 C         139.5866  128.2976  155.3464 C.3     1  UNL1        0.0897
@<TRIPOS>BOND
     1    11    12    2
     2    12     7    1
     3     7     8    2
     4     7     9   am
     5     9     1    1
     6     1     2   ar
     7     2     3   ar
     8     3    13    1
     9    13    15    1
    10    15    16   ar
    11    16    17   ar
    12    17    18   ar
    13    18    19    1
    14    18    20   ar
    15    20    22    1
    16    22    23   ar
    17    23    24   ar
    18    24    25    1
    19    24    26   ar
    20    26    27   ar
    21    27    28   ar
    22    28    29   ar
    23    29    30   ar
    24    30    31   ar
    25    20    21   ar
    26     3     4   ar
    27     4    32    1
    28    32    33    1
    29     4     5   ar
    30     5     6   ar
    31     6    34    1
    32    34    35    1
    33    34    36    1
    34    36    37    1
    35    37    38    1
    36    38    39    1
    37    38    40    1
    38     6     1   ar
    39    21    15   ar
    40    31    22   ar
    41    31    26   ar
    42     9    10    1
    43    13    14    1
@<TRIPOS>MOLECULE
*****
 40 43 0 0 0
SMALL
GASTEIGER

@<TRIPOS>ATOM
      1 C         143.5983  142.5840  159.2782 C.ar    1  UNL1        0.0655
      2 C         144.2423  142.4224  160.6233 C.ar    1  UNL1        0.0337
      3 C         143.7420  143.2148  161.7946 C.ar    1  UNL1        0.0862
      4 C         142.5976  144.1689  161.6207 C.ar    1  UNL1        0.1534
      5 C         141.9536  144.3305  160.2756 C.ar    1  UNL1        0.0539
      6 C         142.4540  143.5381  159.1044 C.ar    1  UNL1        0.0647
      7 C         145.4274  142.1188  157.4929 C.2     1  UNL1        0.2497
      8 O         146.1207  142.9050  157.8042 O.2     1  UNL1       -0.2698
      9 N         144.0987  141.7916  158.1071 N.am    1  UNL1       -0.2794
     10 H         143.5550  141.0567  157.7415 H       1  UNL1        0.1552
     11 C         144.9596  140.5814  155.4513 C.2     1  UNL1        0.0048
     12 C         145.9279  141.3264  156.3217 C.2     1  UNL1        0.0580
     13 N         144.3860  143.0531  163.1395 N.pl3   1  UNL1       -0.2801
     14 H         144.9359  143.7796  163.5125 H       1  UNL1        0.1552
     15 C         144.1922  141.7846  163.9163 C.ar    1  UNL1        0.2207
     16 N         145.2669  140.7383  163.9239 N.ar    1  UNL1       -0.2123
     17 C         145.0732  139.4698  164.7006 C.ar    1  UNL1        0.0990
     18 C         143.8047  139.2477  165.4699 C.ar    1  UNL1        0.0151
     19 C         143.6110  137.9792  166.2467 C.3     1  UNL1        0.0342
     20 C         142.7300  140.2941  165.4623 C.ar    1  UNL1        0.0832
     21 N         142.9238  141.5625  164.6855 N.ar    1  UNL1       -0.2138
     22 C         141.4615  140.0720  166.2315 C.ar    1  UNL1        0.0361
     23 C         140.2400  139.3598  165.7309 C.ar    1  UNL1        0.0774
     24 N         139.2155  139.3708  166.8264 N.ar    1  UNL1       -0.3240
     25 C         137.8435  138.7685  166.7566 C.3     1  UNL1        0.1305
     26 C         139.8038  140.0898  168.0041 C.ar    1  UNL1        0.0600
     27 C         139.2548  140.4058  169.3638 C.ar    1  UNL1        0.0172
     28 C         140.0940  141.1553  170.3558 C.ar    1  UNL1        0.0015
     29 C         141.4822  141.5886  169.9881 C.ar    1  UNL1        0.0001
     30 C         142.0311  141.2726  168.6284 C.ar    1  UNL1        0.0015
     31 C         141.1919  140.5232  167.6365 C.ar    1  UNL1        0.0187
     32 O         142.0973  144.9613  162.7919 O.3     1  UNL1       -0.4701
     33 C         140.6293  145.0027  163.0973 C.3     1  UNL1        0.2525
     34 N         141.8099  143.6998  157.7594 N.pl3   1  UNL1       -0.3033
     35 C         142.0679  144.4329  156.9901 C.3     1  UNL1        0.1123
     36 C         140.6839  142.7958  157.3535 C.3     1  UNL1        0.1082
     37 C         139.2835  143.0952  157.7999 C.3     1  UNL1        0.0938
     38 N         138.5685  142.1449  158.7141 N.3     1  UNL1       -0.2688
     39 C         138.5609  142.3901  160.1938 C.3     1  UNL1        0.0897
     40 C         137.8610  140.9492  158.1485 C.3     1  UNL1        0.0897
@<TRIPOS>BOND
     1    11    12    2
     2    12     7    1
     3     7     8    2
     4     7     9   am
     5     9     1    1
     6     1     2   ar
     7     2     3   ar
     8     3    13    1
     9    13    15    1
    10    15    16   ar
    11    16    17   ar
    12    17    18   ar
    13    18    19    1
    14    18    20   ar
    15    20    22    1
    16    22    23   ar
    17    23    24   ar
    18    24    25    1
    19    24    26   ar
    20    26    27   ar
    21    27    28   ar
    22    28    29   ar
    23    29    30   ar
    24    30    31   ar
    25    20    21   ar
    26     3     4   ar
    27     4    32    1
    28    32    33    1
    29     4     5   ar
    30     5     6   ar
    31     6    34    1
    32    34    35    1
    33    34    36    1
    34    36    37    1
    35    37    38    1
    36    38    39    1
    37    38    40    1
    38     6     1   ar
    39    21    15   ar
    40    31    22   ar
    41    31    26   ar
    42     9    10    1
    43    13    14    1
@<TRIPOS>MOLECULE
*****
 40 43 0 0 0
SMALL
GASTEIGER

@<TRIPOS>ATOM
      1 C         139.6356  138.6386  158.5947 C.ar    1  UNL1        0.0655
      2 C         139.3546  138.0718  159.9548 C.ar    1  UNL1        0.0337
      3 C         138.5315  138.8515  160.9370 C.ar    1  UNL1        0.0862
      4 C         137.9894  140.1980  160.5590 C.ar    1  UNL1        0.1534
      5 C         138.2703  140.7648  159.1988 C.ar    1  UNL1        0.0539
      6 C         139.0934  139.9851  158.2167 C.ar    1  UNL1        0.0647
      7 C         141.9561  137.9058  157.6850 C.2     1  UNL1        0.2497
      8 O         142.5632  138.4663  158.4012 O.2     1  UNL1       -0.2698
      9 N         140.4587  137.8588  157.6126 N.am    1  UNL1       -0.2794
     10 H         140.0160  137.3163  156.9205 H       1  UNL1        0.1552
     11 C         142.8336  135.6296  156.7908 C.2     1  UNL1        0.0048
     12 C         142.7793  137.1260  156.7029 C.2     1  UNL1        0.0580
     13 N         138.2507  138.2846  162.2970 N.pl3   1  UNL1       -0.2801
     14 H         137.5639  137.5880  162.4077 H       1  UNL1        0.1552
     15 C         139.0162  138.7791  163.4884 C.ar    1  UNL1        0.2207
     16 N         138.5684  138.4129  164.8723 N.ar    1  UNL1       -0.2123
     17 C         139.3339  138.9074  166.0638 C.ar    1  UNL1        0.0990
     18 C         140.5473  139.7680  165.8712 C.ar    1  UNL1        0.0151
     19 C         141.3128  140.2624  167.0626 C.3     1  UNL1        0.0342
     20 C         140.9952  140.1342  164.4872 C.ar    1  UNL1        0.0832
     21 N         140.2296  139.6397  163.2958 N.ar    1  UNL1       -0.2138
     22 C         142.2085  140.9948  164.2946 C.ar    1  UNL1        0.0361
     23 C         143.6252  140.5119  164.1957 C.ar    1  UNL1        0.0774
     24 N         144.5105  141.7081  164.0071 N.ar    1  UNL1       -0.3240
     25 C         146.0032  141.6861  163.8617 C.3     1  UNL1        0.1305
     26 C         143.6409  142.9302  163.9895 C.ar    1  UNL1        0.0600
     27 C         143.9607  144.3875  163.8346 C.ar    1  UNL1        0.0172
     28 C         142.8578  145.4039  163.8574 C.ar    1  UNL1        0.0015
     29 C         141.4351  144.9630  164.0351 C.ar    1  UNL1        0.0001
     30 C         141.1153  143.5057  164.1900 C.ar    1  UNL1        0.0015
     31 C         142.2182  142.4893  164.1672 C.ar    1  UNL1        0.0187
     32 O         137.1663  140.9778  161.5411 O.3     1  UNL1       -0.4701
     33 C         137.7863  142.1065  162.3101 C.3     1  UNL1        0.2525
     34 N         139.3742  140.5519  156.8567 N.pl3   1  UNL1       -0.3033
     35 C         138.6983  140.5661  155.9972 C.3     1  UNL1        0.1123
     36 C         140.7033  141.1843  156.5675 C.3     1  UNL1        0.1082
     37 C         141.4809  141.8347  157.6731 C.3     1  UNL1        0.0938
     38 N         141.3412  143.3072  157.9226 N.3     1  UNL1       -0.2688
     39 C         142.5622  144.1759  157.9884 C.3     1  UNL1        0.0897
     40 C         139.9804  143.9110  158.1062 C.3     1  UNL1        0.0897
@<TRIPOS>BOND
     1    11    12    2
     2    12     7    1
     3     7     8    2
     4     7     9   am
     5     9     1    1
     6     1     2   ar
     7     2     3   ar
     8     3    13    1
     9    13    15    1
    10    15    16   ar
    11    16    17   ar
    12    17    18   ar
    13    18    19    1
    14    18    20   ar
    15    20    22    1
    16    22    23   ar
    17    23    24   ar
    18    24    25    1
    19    24    26   ar
    20    26    27   ar
    21    27    28   ar
    22    28    29   ar
    23    29    30   ar
    24    30    31   ar
    25    20    21   ar
    26     3     4   ar
    27     4    32    1
    28    32    33    1
    29     4     5   ar
    30     5     6   ar
    31     6    34    1
    32    34    35    1
    33    34    36    1
    34    36    37    1
    35    37    38    1
    36    38    39    1
    37    38    40    1
    38     6     1   ar
    39    21    15   ar
    40    31    22   ar
    41    31    26   ar
    42     9    10    1
    43    13    14    1
@<TRIPOS>MOLECULE
*****
 40 43 0 0 0
SMALL
GASTEIGER

@<TRIPOS>ATOM
      1 C         140.5179  138.5593  157.7733 C.ar    1  UNL1        0.0655
      2 C         139.5740  138.6070  158.9381 C.ar    1  UNL1        0.0337
      3 C         140.0761  138.3218  160.3225 C.ar    1  UNL1        0.0862
      4 C         141.5220  137.9888  160.5422 C.ar    1  UNL1        0.1534
      5 C         142.4660  137.9411  159.3773 C.ar    1  UNL1        0.0539
      6 C         141.9639  138.2263  157.9929 C.ar    1  UNL1        0.0647
      7 C         139.1276  137.8551  155.6947 C.2     1  UNL1        0.2497
      8 O         138.7767  136.8968  156.0873 O.2     1  UNL1       -0.2698
      9 N         140.0159  138.8445  156.3889 N.am    1  UNL1       -0.2794
     10 H         140.2694  139.6811  155.9359 H       1  UNL1        0.1552
     11 C         139.5971  138.3137  153.1808 C.2     1  UNL1        0.0048
     12 C         138.6254  138.1403  154.3103 C.2     1  UNL1        0.0580
     13 N         139.1321  138.3695  161.4873 N.pl3   1  UNL1       -0.2801
     14 H         138.6022  137.5744  161.7243 H       1  UNL1        0.1552
     15 C         138.9954  139.6287  162.2908 C.ar    1  UNL1        0.2207
     16 N         137.7183  140.4140  162.2428 N.ar    1  UNL1       -0.2123
     17 C         137.5815  141.6733  163.0464 C.ar    1  UNL1        0.0990
     18 C         138.7219  142.1472  163.8979 C.ar    1  UNL1        0.0151
     19 C         138.5852  143.4064  164.7014 C.3     1  UNL1        0.0342
     20 C         139.9991  141.3618  163.9458 C.ar    1  UNL1        0.0832
     21 N         140.1357  140.1026  163.1423 N.ar    1  UNL1       -0.2138
     22 C         141.1394  141.8357  164.7973 C.ar    1  UNL1        0.0361
     23 C         142.3374  142.6017  164.3198 C.ar    1  UNL1        0.0774
     24 N         143.2203  142.8662  165.5032 N.ar    1  UNL1       -0.3240
     25 C         144.5263  143.6038  165.4815 C.3     1  UNL1        0.1305
     26 C         142.5681  142.2636  166.7121 C.ar    1  UNL1        0.0600
     27 C         142.9791  142.2125  168.1537 C.ar    1  UNL1        0.0172
     28 C         142.1040  141.5246  169.1591 C.ar    1  UNL1        0.0015
     29 C         140.8179  140.8877  168.7229 C.ar    1  UNL1        0.0001
     30 C         140.4069  140.9387  167.2812 C.ar    1  UNL1        0.0015
     31 C         141.2820  141.6267  166.2758 C.ar    1  UNL1        0.0187
     32 O         142.0241  137.7036  161.9266 O.3     1  UNL1       -0.4701
     33 C         143.2927  138.3411  162.4105 C.3     1  UNL1        0.2525
     34 N         142.9079  138.1786  156.8282 N.pl3   1  UNL1       -0.3033
     35 C         143.3823  139.0289  156.3303 C.3     1  UNL1        0.1123
     36 C         143.2903  136.8590  156.2263 C.3     1  UNL1        0.1082
     37 C         142.2518  135.7942  156.0319 C.3     1  UNL1        0.0938
     38 N         142.5482  134.3770  156.4239 N.3     1  UNL1       -0.2688
     39 C         143.5196  134.0925  157.5308 C.3     1  UNL1        0.0897
     40 C         141.8731  133.2443  155.7089 C.3     1  UNL1        0.0897
@<TRIPOS>BOND
     1    11    12    2
     2    12     7    1
     3     7     8    2
     4     7     9   am
     5     9     1    1
     6     1     2   ar
     7     2     3   ar
     8     3    13    1
     9    13    15    1
    10    15    16   ar
    11    16    17   ar
    12    17    18   ar
    13    18    19    1
    14    18    20   ar
    15    20    22    1
    16    22    23   ar
    17    23    24   ar
    18    24    25    1
    19    24    26   ar
    20    26    27   ar
    21    27    28   ar
    22    28    29   ar
    23    29    30   ar
    24    30    31   ar
    25    20    21   ar
    26     3     4   ar
    27     4    32    1
    28    32    33    1
    29     4     5   ar
    30     5     6   ar
    31     6    34    1
    32    34    35    1
    33    34    36    1
    34    36    37    1
    35    37    38    1
    36    38    39    1
    37    38    40    1
    38     6     1   ar
    39    21    15   ar
    40    31    22   ar
    41    31    26   ar
    42     9    10    1
    43    13    14    1
