@<TRIPOS>MOLECULE
*****
 42 47 0 0 0
SMALL
GASTEIGER

@<TRIPOS>ATOM
      1 N         139.1402  142.4786  160.4459 N.am    1  UNL1       -0.1907
      2 C         138.4872  141.5759  159.4415 C.2     1  UNL1        0.3220
      3 O         137.8548  140.2468  159.7305 O.2     1  UNL1       -0.2512
      4 N         138.5776  142.2356  158.0974 N.am    1  UNL1       -0.2212
      5 C         139.2865  143.5461  158.2710 C.3     1  UNL1        0.1391
      6 C         140.0057  144.8214  158.5973 C.3     1  UNL1        0.0449
      7 C         140.3129  145.8084  157.5104 C.3     1  UNL1        0.0746
      8 N         139.9010  145.5201  156.0972 N.3     1  UNL1       -0.2676
      9 C         139.1818  144.2448  155.7709 C.3     1  UNL1        0.0746
     10 C         138.8746  143.2578  156.8578 C.3     1  UNL1        0.0449
     11 C         139.6342  143.6963  159.7224 C.2     1  UNL1        0.2529
     12 O         140.3502  144.8599  160.3417 O.2     1  UNL1       -0.2724
     13 C         139.5460  141.6750  164.8549 C.ar    1  UNL1       -0.0002
     14 C         140.6580  141.3033  163.9193 C.ar    1  UNL1        0.0013
     15 C         140.5228  141.5711  162.4496 C.ar    1  UNL1        0.0154
     16 C         139.2755  142.2108  161.9156 C.ar    1  UNL1        0.0622
     17 C         138.1636  142.5825  162.8511 C.ar    1  UNL1        0.0154
     18 C         138.2989  142.3146  164.3208 C.ar    1  UNL1        0.0013
     19 C         138.5129  139.1076  166.0130 C.3     1  UNL1        0.0310
     20 C         139.1647  140.1234  166.9035 C.ar    1  UNL1       -0.0218
     21 C         139.3000  139.8555  168.3733 C.ar    1  UNL1       -0.0031
     22 C         139.9518  140.8713  169.2639 C.ar    1  UNL1        0.0137
     23 C         140.4684  142.1551  168.6848 C.ar    1  UNL1        0.0011
     24 C         140.3332  142.4229  167.2152 C.ar    1  UNL1       -0.0003
     25 C         139.6813  141.4071  166.3245 C.ar    1  UNL1       -0.0040
     26 C         140.0871  140.6035  170.7336 C.2     1  UNL1        0.0729
     27 O         140.7955  141.5902  171.6137 O.co2   1  UNL1       -0.5446
     28 O         139.5140  139.3488  171.3231 O.co2   1  UNL1       -0.5446
     29 C         138.0515  141.6821  156.8064 C.ar    1  UNL1        0.1583
     30 C         138.9163  140.7915  155.9644 C.ar    1  UNL1        0.1335
     31 N         138.3902  140.2381  154.6733 N.ar    1  UNL1       -0.2378
     32 C         136.9992  140.5751  154.2242 C.ar    1  UNL1        0.1196
     33 C         136.1344  141.4657  155.0663 C.ar    1  UNL1        0.1210
     34 N         136.6606  142.0192  156.3573 N.ar    1  UNL1       -0.2255
     35 C         140.2082  146.5071  155.0102 C.3     1  UNL1        0.1183
     36 C         139.6865  147.9104  155.1020 C.ar    1  UNL1        0.0712
     37 N         138.8310  148.3180  156.2648 N.ar    1  UNL1       -0.2471
     38 C         138.3093  149.7214  156.3566 C.ar    1  UNL1        0.0985
     39 C         138.6431  150.7171  155.2856 C.ar    1  UNL1        0.0203
     40 C         139.4986  150.3096  154.1228 C.ar    1  UNL1       -0.0015
     41 C         140.0203  148.9063  154.0310 C.ar    1  UNL1       -0.0069
     42 C         140.8757  148.4987  152.8682 C.3     1  UNL1        0.0323
@<TRIPOS>UNITY_ATOM_ATTR
27 1
charge -1
@<TRIPOS>BOND
     1    19    20    1
     2    20    21   ar
     3    21    22   ar
     4    22    26    1
     5    26    27   ar
     6    26    28   ar
     7    22    23   ar
     8    23    24   ar
     9    24    25   ar
    10    25    13    1
    11    13    14   ar
    12    14    15   ar
    13    15    16   ar
    14    16     1    1
    15     1     2   am
    16     2     3    2
    17     2     4   am
    18     4    29    1
    19    29    30   ar
    20    30    31   ar
    21    31    32   ar
    22    32    33   ar
    23    33    34   ar
    24     4     5    1
    25     5     6    1
    26     6     7    1
    27     7     8    1
    28     8    35    1
    29    35    36    1
    30    36    37   ar
    31    37    38   ar
    32    38    39   ar
    33    39    40   ar
    34    40    41   ar
    35    41    42    1
    36     8     9    1
    37     9    10    1
    38     5    11    1
    39    11    12    2
    40    16    17   ar
    41    17    18   ar
    42    25    20   ar
    43    18    13   ar
    44    11     1   am
    45    34    29   ar
    46    10     5    1
    47    41    36   ar
@<TRIPOS>MOLECULE
*****
 42 47 0 0 0
SMALL
GASTEIGER

@<TRIPOS>ATOM
      1 N         142.8953  140.5402  160.7667 N.am    1  UNL1       -0.1907
      2 C         143.4736  141.5803  159.8535 C.2     1  UNL1        0.3220
      3 O         143.7764  143.0034  160.2179 O.2     1  UNL1       -0.2512
      4 N         143.6958  140.9473  158.5119 N.am    1  UNL1       -0.2212
      5 C         143.2549  139.5159  158.5959 C.3     1  UNL1        0.1391
      6 C         142.7771  138.1135  158.8298 C.3     1  UNL1        0.0449
      7 C         142.8229  137.1100  157.7159 C.3     1  UNL1        0.0746
      8 N         143.3466  137.5089  156.3681 N.3     1  UNL1       -0.2676
      9 C         143.8244  138.9114  156.1342 C.3     1  UNL1        0.0746
     10 C         143.7786  139.9149  157.2481 C.3     1  UNL1        0.0449
     11 C         142.7602  139.2644  159.9895 C.2     1  UNL1        0.2529
     12 O         142.2244  137.9651  160.5138 O.2     1  UNL1       -0.2724
     13 C         141.7645  141.1419  165.0805 C.ar    1  UNL1       -0.0002
     14 C         141.0990  141.9553  164.0102 C.ar    1  UNL1        0.0013
     15 C         141.4760  141.7548  162.5723 C.ar    1  UNL1        0.0154
     16 C         142.5184  140.7408  162.2047 C.ar    1  UNL1        0.0622
     17 C         143.1838  139.9274  163.2749 C.ar    1  UNL1        0.0154
     18 C         142.8069  140.1279  164.7128 C.ar    1  UNL1        0.0013
     19 C         139.4104  139.6814  166.2318 C.3     1  UNL1        0.0310
     20 C         140.2105  140.6122  167.0941 C.ar    1  UNL1       -0.0218
     21 C         139.8335  140.8127  168.5321 C.ar    1  UNL1       -0.0031
     22 C         140.6336  141.7435  169.3944 C.ar    1  UNL1        0.0137
     23 C         141.8107  142.4737  168.8187 C.ar    1  UNL1        0.0011
     24 C         142.1877  142.2732  167.3807 C.ar    1  UNL1       -0.0003
     25 C         141.3876  141.3424  166.5184 C.ar    1  UNL1       -0.0040
     26 C         140.2567  141.9441  170.8323 C.2     1  UNL1        0.0729
     27 O         139.4322  143.1314  171.2329 O.co2   1  UNL1       -0.5446
     28 O         140.7043  140.9573  171.8697 O.co2   1  UNL1       -0.5446
     29 C         144.2599  141.6262  157.2992 C.ar    1  UNL1        0.1583
     30 C         143.3516  142.3694  156.3650 C.ar    1  UNL1        0.1335
     31 N         143.9158  143.0483  155.1523 N.ar    1  UNL1       -0.2378
     32 C         145.3883  142.9842  154.8736 C.ar    1  UNL1        0.1196
     33 C         146.2966  142.2410  155.8078 C.ar    1  UNL1        0.1210
     34 N         145.7324  141.5621  157.0205 N.ar    1  UNL1       -0.2255
     35 C         143.3924  136.5053  155.2541 C.3     1  UNL1        0.1183
     36 C         143.0272  135.0746  155.5181 C.ar    1  UNL1        0.0712
     37 N         143.9846  134.1783  156.2461 N.ar    1  UNL1       -0.2471
     38 C         143.6194  132.7475  156.5101 C.ar    1  UNL1        0.0985
     39 C         142.2969  132.2132  156.0461 C.ar    1  UNL1        0.0203
     40 C         141.3395  133.1095  155.3181 C.ar    1  UNL1       -0.0015
     41 C         141.7046  134.5402  155.0541 C.ar    1  UNL1       -0.0069
     42 C         140.7473  135.4366  154.3261 C.3     1  UNL1        0.0323
@<TRIPOS>UNITY_ATOM_ATTR
27 1
charge -1
@<TRIPOS>BOND
     1    19    20    1
     2    20    21   ar
     3    21    22   ar
     4    22    26    1
     5    26    27   ar
     6    26    28   ar
     7    22    23   ar
     8    23    24   ar
     9    24    25   ar
    10    25    13    1
    11    13    14   ar
    12    14    15   ar
    13    15    16   ar
    14    16     1    1
    15     1     2   am
    16     2     3    2
    17     2     4   am
    18     4    29    1
    19    29    30   ar
    20    30    31   ar
    21    31    32   ar
    22    32    33   ar
    23    33    34   ar
    24     4     5    1
    25     5     6    1
    26     6     7    1
    27     7     8    1
    28     8    35    1
    29    35    36    1
    30    36    37   ar
    31    37    38   ar
    32    38    39   ar
    33    39    40   ar
    34    40    41   ar
    35    41    42    1
    36     8     9    1
    37     9    10    1
    38     5    11    1
    39    11    12    2
    40    16    17   ar
    41    17    18   ar
    42    25    20   ar
    43    18    13   ar
    44    11     1   am
    45    34    29   ar
    46    10     5    1
    47    41    36   ar
@<TRIPOS>MOLECULE
*****
 42 47 0 0 0
SMALL
GASTEIGER

@<TRIPOS>ATOM
      1 N         142.1083  139.6362  160.8020 N.am    1  UNL1       -0.1907
      2 C         141.3807  138.5975  160.0008 C.2     1  UNL1        0.3220
      3 O         140.2487  137.7421  160.4871 O.2     1  UNL1       -0.2512
      4 N         141.9840  138.5645  158.6279 N.am    1  UNL1       -0.2212
      5 C         143.0845  139.5828  158.5805 C.3     1  UNL1        0.1391
      6 C         144.1499  140.6337  158.6827 C.3     1  UNL1        0.0449
      7 C         145.0206  140.9364  157.4994 C.3     1  UNL1        0.0746
      8 N         144.8260  140.1883  156.2140 N.3     1  UNL1       -0.2676
      9 C         143.7605  139.1374  156.1118 C.3     1  UNL1        0.0746
     10 C         142.8898  138.8347  157.2950 C.3     1  UNL1        0.0449
     11 C         143.1613  140.2451  159.9242 C.2     1  UNL1        0.2529
     12 O         144.1223  141.3265  160.3205 O.2     1  UNL1       -0.2724
     13 C         141.2778  140.7329  165.0865 C.ar    1  UNL1       -0.0002
     14 C         140.6661  141.5335  163.9753 C.ar    1  UNL1        0.0013
     15 C         140.9429  141.1680  162.5471 C.ar    1  UNL1        0.0154
     16 C         141.8314  140.0018  162.2302 C.ar    1  UNL1        0.0622
     17 C         142.4431  139.2012  163.3413 C.ar    1  UNL1        0.0154
     18 C         142.1663  139.5667  164.7695 C.ar    1  UNL1        0.0013
     19 C         139.0762  139.3548  166.5880 C.3     1  UNL1        0.0310
     20 C         139.9002  140.4094  167.2654 C.ar    1  UNL1       -0.0218
     21 C         139.6233  140.7750  168.6936 C.ar    1  UNL1       -0.0031
     22 C         140.4473  141.8295  169.3711 C.ar    1  UNL1        0.0137
     23 C         141.5481  142.5186  168.6204 C.ar    1  UNL1        0.0011
     24 C         141.8250  142.1530  167.1922 C.ar    1  UNL1       -0.0003
     25 C         141.0010  141.0984  166.5147 C.ar    1  UNL1       -0.0040
     26 C         140.1705  142.1951  170.7993 C.2     1  UNL1        0.0729
     27 O         139.3030  143.3770  171.1163 O.co2   1  UNL1       -0.5446
     28 O         140.7612  141.3787  171.9105 O.co2   1  UNL1       -0.5446
     29 C         141.5612  137.6703  157.5003 C.ar    1  UNL1        0.1583
     30 C         140.3606  138.0228  156.6731 C.ar    1  UNL1        0.1335
     31 N         139.9379  137.1285  155.5455 N.ar    1  UNL1       -0.2378
     32 C         140.7157  135.8816  155.2450 C.ar    1  UNL1        0.1196
     33 C         141.9164  135.5291  156.0721 C.ar    1  UNL1        0.1210
     34 N         142.3391  136.4234  157.1997 N.ar    1  UNL1       -0.2255
     35 C         145.6968  140.4911  155.0307 C.3     1  UNL1        0.1183
     36 C         145.8450  141.9044  154.5507 C.ar    1  UNL1        0.0712
     37 N         144.6948  142.5921  153.8766 N.ar    1  UNL1       -0.2471
     38 C         144.8431  144.0055  153.3966 C.ar    1  UNL1        0.0985
     39 C         146.1414  144.7312  153.5906 C.ar    1  UNL1        0.0203
     40 C         147.2915  144.0435  154.2646 C.ar    1  UNL1       -0.0015
     41 C         147.1433  142.6302  154.7446 C.ar    1  UNL1       -0.0069
     42 C         148.2935  141.9425  155.4187 C.3     1  UNL1        0.0323
@<TRIPOS>UNITY_ATOM_ATTR
27 1
charge -1
@<TRIPOS>BOND
     1    19    20    1
     2    20    21   ar
     3    21    22   ar
     4    22    26    1
     5    26    27   ar
     6    26    28   ar
     7    22    23   ar
     8    23    24   ar
     9    24    25   ar
    10    25    13    1
    11    13    14   ar
    12    14    15   ar
    13    15    16   ar
    14    16     1    1
    15     1     2   am
    16     2     3    2
    17     2     4   am
    18     4    29    1
    19    29    30   ar
    20    30    31   ar
    21    31    32   ar
    22    32    33   ar
    23    33    34   ar
    24     4     5    1
    25     5     6    1
    26     6     7    1
    27     7     8    1
    28     8    35    1
    29    35    36    1
    30    36    37   ar
    31    37    38   ar
    32    38    39   ar
    33    39    40   ar
    34    40    41   ar
    35    41    42    1
    36     8     9    1
    37     9    10    1
    38     5    11    1
    39    11    12    2
    40    16    17   ar
    41    17    18   ar
    42    25    20   ar
    43    18    13   ar
    44    11     1   am
    45    34    29   ar
    46    10     5    1
    47    41    36   ar
@<TRIPOS>MOLECULE
*****
 42 47 0 0 0
SMALL
GASTEIGER

@<TRIPOS>ATOM
      1 N         142.7248  139.9990  160.5963 N.am    1  UNL1       -0.1907
      2 C         142.2830  138.9716  159.5966 C.2     1  UNL1        0.3220
      3 O         141.4047  137.7886  159.8776 O.2     1  UNL1       -0.2512
      4 N         142.8737  139.3350  158.2666 N.am    1  UNL1       -0.2212
      5 C         143.6807  140.5870  158.4442 C.3     1  UNL1        0.1391
      6 C         144.4456  141.8347  158.7731 C.3     1  UNL1        0.0449
      7 C         145.2102  142.5505  157.6994 C.3     1  UNL1        0.0746
      8 N         145.2099  142.0187  156.2969 N.3     1  UNL1       -0.2676
      9 C         144.4450  140.7711  155.9680 C.3     1  UNL1        0.0746
     10 C         143.6804  140.0552  157.0416 C.3     1  UNL1        0.0449
     11 C         143.5886  140.9974  159.8841 C.2     1  UNL1        0.2529
     12 O         144.2451  142.1957  160.5030 O.2     1  UNL1       -0.2724
     13 C         141.6480  140.0731  164.9649 C.ar    1  UNL1       -0.0002
     14 C         141.4278  141.2910  164.1174 C.ar    1  UNL1        0.0013
     15 C         141.7867  141.2663  162.6612 C.ar    1  UNL1        0.0154
     16 C         142.3659  140.0237  162.0525 C.ar    1  UNL1        0.0622
     17 C         142.5861  138.8059  162.9000 C.ar    1  UNL1        0.0154
     18 C         142.2271  138.8306  164.3562 C.ar    1  UNL1        0.0013
     19 C         138.7745  139.8794  165.8050 C.3     1  UNL1        0.0310
     20 C         139.8523  140.0010  166.8411 C.ar    1  UNL1       -0.0218
     21 C         139.4933  140.0257  168.2974 C.ar    1  UNL1       -0.0031
     22 C         140.5711  140.1472  169.3336 C.ar    1  UNL1        0.0137
     23 C         142.0079  140.2441  168.9135 C.ar    1  UNL1        0.0011
     24 C         142.3669  140.2194  167.4573 C.ar    1  UNL1       -0.0003
     25 C         141.2891  140.0978  166.4211 C.ar    1  UNL1       -0.0040
     26 C         140.2122  140.1719  170.7898 C.2     1  UNL1        0.0729
     27 O         140.8498  141.1772  171.7024 O.co2   1  UNL1       -0.5446
     28 O         139.2156  139.1914  171.3333 O.co2   1  UNL1       -0.5446
     29 C         142.6899  138.5792  156.9841 C.ar    1  UNL1        0.1583
     30 C         141.5247  138.8886  156.0915 C.ar    1  UNL1        0.1335
     31 N         141.3409  138.1328  154.8090 N.ar    1  UNL1       -0.2378
     32 C         142.3223  137.0674  154.4189 C.ar    1  UNL1        0.1196
     33 C         143.4875  136.7580  155.3115 C.ar    1  UNL1        0.1210
     34 N         143.6712  137.5139  156.5940 N.ar    1  UNL1       -0.2255
     35 C         145.9747  142.7347  155.2232 C.3     1  UNL1        0.1183
     36 C         147.3663  142.2969  154.8746 C.ar    1  UNL1        0.0712
     37 N         148.3694  142.0499  155.9622 N.ar    1  UNL1       -0.2471
     38 C         149.7611  141.6121  155.6135 C.ar    1  UNL1        0.0985
     39 C         150.1497  141.4213  154.1774 C.ar    1  UNL1        0.0203
     40 C         149.1466  141.6682  153.0898 C.ar    1  UNL1       -0.0015
     41 C         147.7550  142.1060  153.4384 C.ar    1  UNL1       -0.0069
     42 C         146.7519  142.3530  152.3508 C.3     1  UNL1        0.0323
@<TRIPOS>UNITY_ATOM_ATTR
27 1
charge -1
@<TRIPOS>BOND
     1    19    20    1
     2    20    21   ar
     3    21    22   ar
     4    22    26    1
     5    26    27   ar
     6    26    28   ar
     7    22    23   ar
     8    23    24   ar
     9    24    25   ar
    10    25    13    1
    11    13    14   ar
    12    14    15   ar
    13    15    16   ar
    14    16     1    1
    15     1     2   am
    16     2     3    2
    17     2     4   am
    18     4    29    1
    19    29    30   ar
    20    30    31   ar
    21    31    32   ar
    22    32    33   ar
    23    33    34   ar
    24     4     5    1
    25     5     6    1
    26     6     7    1
    27     7     8    1
    28     8    35    1
    29    35    36    1
    30    36    37   ar
    31    37    38   ar
    32    38    39   ar
    33    39    40   ar
    34    40    41   ar
    35    41    42    1
    36     8     9    1
    37     9    10    1
    38     5    11    1
    39    11    12    2
    40    16    17   ar
    41    17    18   ar
    42    25    20   ar
    43    18    13   ar
    44    11     1   am
    45    34    29   ar
    46    10     5    1
    47    41    36   ar
@<TRIPOS>MOLECULE
*****
 42 47 0 0 0
SMALL
GASTEIGER

@<TRIPOS>ATOM
      1 N         141.6390  139.6176  160.7007 N.am    1  UNL1       -0.1907
      2 C         142.6663  138.8177  159.9557 C.2     1  UNL1        0.3220
      3 O         143.9723  138.3279  160.5073 O.2     1  UNL1       -0.2512
      4 N         142.1583  138.5938  158.5623 N.am    1  UNL1       -0.2212
      5 C         140.8169  139.2552  158.4460 C.3     1  UNL1        0.1391
      6 C         139.4933  139.9601  158.4796 C.3     1  UNL1        0.0449
      7 C         138.6254  139.9845  157.2565 C.3     1  UNL1        0.0746
      8 N         139.0811  139.3040  155.9998 N.3     1  UNL1       -0.2676
      9 C         140.4046  138.5991  155.9662 C.3     1  UNL1        0.0746
     10 C         141.2726  138.5747  157.1893 C.3     1  UNL1        0.0449
     11 C         140.4960  139.8880  159.7676 C.2     1  UNL1        0.2529
     12 O         139.2508  140.6562  160.0981 O.2     1  UNL1       -0.2724
     13 C         141.9342  140.9688  164.9829 C.ar    1  UNL1       -0.0002
     14 C         141.9967  139.5072  164.6516 C.ar    1  UNL1        0.0013
     15 C         141.8983  139.0568  163.2242 C.ar    1  UNL1        0.0154
     16 C         141.7374  140.0680  162.1281 C.ar    1  UNL1        0.0622
     17 C         141.6749  141.5296  162.4593 C.ar    1  UNL1        0.0154
     18 C         141.7733  141.9800  163.8867 C.ar    1  UNL1        0.0013
     19 C         139.5824  140.6581  166.8193 C.3     1  UNL1        0.0310
     20 C         140.8567  141.2639  167.3284 C.ar    1  UNL1       -0.0218
     21 C         140.9550  141.7143  168.7559 C.ar    1  UNL1       -0.0031
     22 C         142.2293  142.3200  169.2651 C.ar    1  UNL1        0.0137
     23 C         143.4053  142.4754  168.3468 C.ar    1  UNL1        0.0011
     24 C         143.3069  142.0250  166.9194 C.ar    1  UNL1       -0.0003
     25 C         142.0326  141.4192  166.4102 C.ar    1  UNL1       -0.0040
     26 C         142.3277  142.7704  170.6924 C.2     1  UNL1        0.0729
     27 O         143.2852  143.8615  171.0703 O.co2   1  UNL1       -0.5446
     28 O         141.4687  142.1298  171.7420 O.co2   1  UNL1       -0.5446
     29 C         142.8670  137.8406  157.4758 C.ar    1  UNL1        0.1583
     30 C         142.7252  136.3504  157.3809 C.ar    1  UNL1        0.1335
     31 N         143.4340  135.5973  156.2944 N.ar    1  UNL1       -0.2378
     32 C         144.2845  136.3344  155.3027 C.ar    1  UNL1        0.1196
     33 C         144.4263  137.8247  155.3977 C.ar    1  UNL1        0.1210
     34 N         143.7175  138.5777  156.4842 N.ar    1  UNL1       -0.2255
     35 C         138.2130  139.3284  154.7766 C.3     1  UNL1        0.1183
     36 C         136.8263  139.8951  154.8523 C.ar    1  UNL1        0.0712
     37 N         135.6802  139.0204  155.2664 N.ar    1  UNL1       -0.2471
     38 C         134.2934  139.5871  155.3420 C.ar    1  UNL1        0.0985
     39 C         134.0527  141.0284  155.0036 C.ar    1  UNL1        0.0203
     40 C         135.1988  141.9031  154.5895 C.ar    1  UNL1       -0.0015
     41 C         136.5855  141.3365  154.5138 C.ar    1  UNL1       -0.0069
     42 C         137.7316  142.2112  154.0998 C.3     1  UNL1        0.0323
@<TRIPOS>UNITY_ATOM_ATTR
27 1
charge -1
@<TRIPOS>BOND
     1    19    20    1
     2    20    21   ar
     3    21    22   ar
     4    22    26    1
     5    26    27   ar
     6    26    28   ar
     7    22    23   ar
     8    23    24   ar
     9    24    25   ar
    10    25    13    1
    11    13    14   ar
    12    14    15   ar
    13    15    16   ar
    14    16     1    1
    15     1     2   am
    16     2     3    2
    17     2     4   am
    18     4    29    1
    19    29    30   ar
    20    30    31   ar
    21    31    32   ar
    22    32    33   ar
    23    33    34   ar
    24     4     5    1
    25     5     6    1
    26     6     7    1
    27     7     8    1
    28     8    35    1
    29    35    36    1
    30    36    37   ar
    31    37    38   ar
    32    38    39   ar
    33    39    40   ar
    34    40    41   ar
    35    41    42    1
    36     8     9    1
    37     9    10    1
    38     5    11    1
    39    11    12    2
    40    16    17   ar
    41    17    18   ar
    42    25    20   ar
    43    18    13   ar
    44    11     1   am
    45    34    29   ar
    46    10     5    1
    47    41    36   ar
@<TRIPOS>MOLECULE
*****
 42 47 0 0 0
SMALL
GASTEIGER

@<TRIPOS>ATOM
      1 N         140.3157  140.1593  160.7405 N.am    1  UNL1       -0.1907
      2 C         139.4914  140.7938  159.6597 C.2     1  UNL1        0.3220
      3 O         138.4695  141.8751  159.8502 O.2     1  UNL1       -0.2512
      4 N         139.8685  140.1570  158.3550 N.am    1  UNL1       -0.2212
      5 C         140.9258  139.1289  158.6293 C.3     1  UNL1        0.1391
      6 C         141.9718  138.1417  159.0549 C.3     1  UNL1        0.0449
      7 C         142.6361  137.2660  158.0342 C.3     1  UNL1        0.0746
      8 N         142.2544  137.3776  156.5879 N.3     1  UNL1       -0.2676
      9 C         141.2084  138.3649  156.1623 C.3     1  UNL1        0.0746
     10 C         140.5441  139.2405  157.1830 C.3     1  UNL1        0.0449
     11 C         141.2023  139.1304  160.1037 C.2     1  UNL1        0.2529
     12 O         142.1915  138.2564  160.8161 O.2     1  UNL1       -0.2724
     13 C         140.1570  141.1660  165.1235 C.ar    1  UNL1       -0.0002
     14 C         141.4812  141.0429  164.4297 C.ar    1  UNL1        0.0013
     15 C         141.5341  140.7073  162.9687 C.ar    1  UNL1        0.0154
     16 C         140.2628  140.4949  162.2015 C.ar    1  UNL1        0.0622
     17 C         138.9387  140.6179  162.8953 C.ar    1  UNL1        0.0154
     18 C         138.8858  140.9535  164.3563 C.ar    1  UNL1        0.0013
     19 C         139.1340  139.1450  167.0907 C.3     1  UNL1        0.0310
     20 C         139.5926  140.4910  167.5681 C.ar    1  UNL1       -0.0218
     21 C         139.5397  140.8265  169.0292 C.ar    1  UNL1       -0.0031
     22 C         139.9983  142.1725  169.5067 C.ar    1  UNL1        0.0137
     23 C         140.5098  143.1830  168.5231 C.ar    1  UNL1        0.0011
     24 C         140.5627  142.8475  167.0621 C.ar    1  UNL1       -0.0003
     25 C         140.1041  141.5015  166.5846 C.ar    1  UNL1       -0.0040
     26 C         139.9454  142.5081  170.9677 C.2     1  UNL1        0.0729
     27 O         138.9567  143.5182  171.4699 O.co2   1  UNL1       -0.5446
     28 O         140.8811  141.8335  171.9265 O.co2   1  UNL1       -0.5446
     29 C         139.2898  140.4897  157.0117 C.ar    1  UNL1        0.1583
     30 C         139.8867  141.5941  156.1906 C.ar    1  UNL1        0.1335
     31 N         139.3080  141.9267  154.8473 N.ar    1  UNL1       -0.2378
     32 C         138.1324  141.1551  154.3251 C.ar    1  UNL1        0.1196
     33 C         137.5356  140.0508  155.1462 C.ar    1  UNL1        0.1210
     34 N         138.1143  139.7181  156.4894 N.ar    1  UNL1       -0.2255
     35 C         142.9187  136.5019  155.5672 C.3     1  UNL1        0.1183
     36 C         142.6760  135.0217  155.5769 C.ar    1  UNL1        0.0712
     37 N         143.2020  134.1828  156.7036 N.ar    1  UNL1       -0.2471
     38 C         142.9593  132.7026  156.7134 C.ar    1  UNL1        0.0985
     39 C         142.1905  132.0613  155.5964 C.ar    1  UNL1        0.0203
     40 C         141.6644  132.9002  154.4697 C.ar    1  UNL1       -0.0015
     41 C         141.9071  134.3803  154.4599 C.ar    1  UNL1       -0.0069
     42 C         141.3810  135.2192  153.3332 C.3     1  UNL1        0.0323
@<TRIPOS>UNITY_ATOM_ATTR
27 1
charge -1
@<TRIPOS>BOND
     1    19    20    1
     2    20    21   ar
     3    21    22   ar
     4    22    26    1
     5    26    27   ar
     6    26    28   ar
     7    22    23   ar
     8    23    24   ar
     9    24    25   ar
    10    25    13    1
    11    13    14   ar
    12    14    15   ar
    13    15    16   ar
    14    16     1    1
    15     1     2   am
    16     2     3    2
    17     2     4   am
    18     4    29    1
    19    29    30   ar
    20    30    31   ar
    21    31    32   ar
    22    32    33   ar
    23    33    34   ar
    24     4     5    1
    25     5     6    1
    26     6     7    1
    27     7     8    1
    28     8    35    1
    29    35    36    1
    30    36    37   ar
    31    37    38   ar
    32    38    39   ar
    33    39    40   ar
    34    40    41   ar
    35    41    42    1
    36     8     9    1
    37     9    10    1
    38     5    11    1
    39    11    12    2
    40    16    17   ar
    41    17    18   ar
    42    25    20   ar
    43    18    13   ar
    44    11     1   am
    45    34    29   ar
    46    10     5    1
    47    41    36   ar
@<TRIPOS>MOLECULE
*****
 42 47 0 0 0
SMALL
GASTEIGER

@<TRIPOS>ATOM
      1 N         139.9208  141.3485  160.5352 N.am    1  UNL1       -0.1907
      2 C         138.6916  141.8491  159.8361 C.2     1  UNL1        0.3220
      3 O         137.5932  142.6606  160.4566 O.2     1  UNL1       -0.2512
      4 N         138.7537  141.3957  158.4077 N.am    1  UNL1       -0.2212
      5 C         140.0213  140.6149  158.2238 C.3     1  UNL1        0.1391
      6 C         141.3180  139.8617  158.1918 C.3     1  UNL1        0.0449
      7 C         141.7827  139.2224  156.9169 C.3     1  UNL1        0.0746
      8 N         140.9506  139.3362  155.6741 N.3     1  UNL1       -0.2676
      9 C         139.6538  140.0894  155.7061 C.3     1  UNL1        0.0746
     10 C         139.1891  140.7287  156.9810 C.3     1  UNL1        0.0449
     11 C         140.7425  140.5857  159.5387 C.2     1  UNL1        0.2529
     12 O         142.0551  139.9121  159.8096 O.2     1  UNL1       -0.2724
     13 C         140.9604  142.0176  164.8620 C.ar    1  UNL1       -0.0002
     14 C         140.8470  143.1863  163.9285 C.ar    1  UNL1        0.0013
     15 C         140.5004  142.9633  162.4862 C.ar    1  UNL1        0.0154
     16 C         140.2673  141.5716  161.9775 C.ar    1  UNL1        0.0622
     17 C         140.3807  140.4030  162.9109 C.ar    1  UNL1        0.0154
     18 C         140.7272  140.6260  164.3532 C.ar    1  UNL1        0.0013
     19 C         143.8285  141.9685  165.7405 C.3     1  UNL1        0.0310
     20 C         142.7409  142.2161  166.7435 C.ar    1  UNL1       -0.0218
     21 C         143.0875  142.4391  168.1858 C.ar    1  UNL1       -0.0031
     22 C         142.0000  142.6867  169.1889 C.ar    1  UNL1        0.0137
     23 C         140.5659  142.7113  168.7496 C.ar    1  UNL1        0.0011
     24 C         140.2194  142.4882  167.3073 C.ar    1  UNL1       -0.0003
     25 C         141.3069  142.2407  166.3043 C.ar    1  UNL1       -0.0040
     26 C         142.3466  142.9098  170.6311 C.2     1  UNL1        0.0729
     27 O         143.4492  143.8576  170.9996 O.co2   1  UNL1       -0.5446
     28 O         141.5905  142.1850  171.7049 O.co2   1  UNL1       -0.5446
     29 C         137.7284  141.6742  157.3489 C.ar    1  UNL1        0.1583
     30 C         137.7765  142.9599  156.5778 C.ar    1  UNL1        0.1335
     31 N         136.7511  143.2383  155.5190 N.ar    1  UNL1       -0.2378
     32 C         135.6775  142.2310  155.2312 C.ar    1  UNL1        0.1196
     33 C         135.6294  140.9453  156.0023 C.ar    1  UNL1        0.1210
     34 N         136.6548  140.6669  157.0611 N.ar    1  UNL1       -0.2255
     35 C         141.4153  138.6968  154.3992 C.3     1  UNL1        0.1183
     36 C         141.7693  137.2394  154.3767 C.ar    1  UNL1        0.0712
     37 N         143.0558  136.7706  154.9893 N.ar    1  UNL1       -0.2471
     38 C         143.4098  135.3131  154.9668 C.ar    1  UNL1        0.0985
     39 C         142.4774  134.3245  154.3318 C.ar    1  UNL1        0.0203
     40 C         141.1910  134.7933  153.7192 C.ar    1  UNL1       -0.0015
     41 C         140.8369  136.2507  153.7417 C.ar    1  UNL1       -0.0069
     42 C         139.5505  136.7196  153.1291 C.3     1  UNL1        0.0323
@<TRIPOS>UNITY_ATOM_ATTR
27 1
charge -1
@<TRIPOS>BOND
     1    19    20    1
     2    20    21   ar
     3    21    22   ar
     4    22    26    1
     5    26    27   ar
     6    26    28   ar
     7    22    23   ar
     8    23    24   ar
     9    24    25   ar
    10    25    13    1
    11    13    14   ar
    12    14    15   ar
    13    15    16   ar
    14    16     1    1
    15     1     2   am
    16     2     3    2
    17     2     4   am
    18     4    29    1
    19    29    30   ar
    20    30    31   ar
    21    31    32   ar
    22    32    33   ar
    23    33    34   ar
    24     4     5    1
    25     5     6    1
    26     6     7    1
    27     7     8    1
    28     8    35    1
    29    35    36    1
    30    36    37   ar
    31    37    38   ar
    32    38    39   ar
    33    39    40   ar
    34    40    41   ar
    35    41    42    1
    36     8     9    1
    37     9    10    1
    38     5    11    1
    39    11    12    2
    40    16    17   ar
    41    17    18   ar
    42    25    20   ar
    43    18    13   ar
    44    11     1   am
    45    34    29   ar
    46    10     5    1
    47    41    36   ar
@<TRIPOS>MOLECULE
*****
 42 47 0 0 0
SMALL
GASTEIGER

@<TRIPOS>ATOM
      1 N         141.9863  140.2114  160.6526 N.am    1  UNL1       -0.1907
      2 C         143.0319  140.8460  159.7842 C.2     1  UNL1        0.3220
      3 O         144.0696  141.8323  160.2315 O.2     1  UNL1       -0.2512
      4 N         142.8575  140.3209  158.3900 N.am    1  UNL1       -0.2212
      5 C         141.7041  139.3619  158.3966 C.3     1  UNL1        0.1391
      6 C         140.5370  138.4333  158.5568 C.3     1  UNL1        0.0449
      7 C         140.0140  137.6751  157.3729 C.3     1  UNL1        0.0746
      8 N         140.6579  137.8455  156.0290 N.3     1  UNL1       -0.2676
      9 C         141.8250  138.7741  155.8688 C.3     1  UNL1        0.0746
     10 C         142.3480  139.5323  157.0526 C.3     1  UNL1        0.0449
     11 C         141.1656  139.2942  159.7950 C.2     1  UNL1        0.2529
     12 O         140.0096  138.4565  160.2551 O.2     1  UNL1       -0.2724
     13 C         141.4121  140.9328  165.0571 C.ar    1  UNL1       -0.0002
     14 C         142.1618  139.7216  164.5869 C.ar    1  UNL1        0.0013
     15 C         142.3531  139.4812  163.1188 C.ar    1  UNL1        0.0154
     16 C         141.7949  140.4519  162.1208 C.ar    1  UNL1        0.0622
     17 C         141.0452  141.6630  162.5910 C.ar    1  UNL1        0.0154
     18 C         140.8538  141.9034  164.0591 C.ar    1  UNL1        0.0013
     19 C         143.4207  142.5540  166.5860 C.3     1  UNL1        0.0310
     20 C         142.2250  141.9838  167.2897 C.ar    1  UNL1       -0.0218
     21 C         142.0336  142.2243  168.7579 C.ar    1  UNL1       -0.0031
     22 C         140.8379  141.6542  169.4617 C.ar    1  UNL1        0.0137
     23 C         139.8336  140.8435  168.6972 C.ar    1  UNL1        0.0011
     24 C         140.0250  140.6031  167.2291 C.ar    1  UNL1       -0.0003
     25 C         141.2207  141.1732  166.5253 C.ar    1  UNL1       -0.0040
     26 C         140.6465  141.8946  170.9299 C.2     1  UNL1        0.0729
     27 O         139.6314  142.8937  171.4001 O.co2   1  UNL1       -0.5446
     28 O         141.4703  141.1359  171.9278 O.co2   1  UNL1       -0.5446
     29 C         143.6902  140.6901  157.1982 C.ar    1  UNL1        0.1583
     30 C         143.3306  141.8913  156.3750 C.ar    1  UNL1        0.1335
     31 N         144.1634  142.2603  155.1832 N.ar    1  UNL1       -0.2378
     32 C         145.3558  141.4282  154.8147 C.ar    1  UNL1        0.1196
     33 C         145.7154  140.2270  155.6379 C.ar    1  UNL1        0.1210
     34 N         144.8826  139.8579  156.8297 N.ar    1  UNL1       -0.2255
     35 C         140.1348  137.0872  154.8451 C.3     1  UNL1        0.1183
     36 C         140.8015  135.8140  154.4157 C.ar    1  UNL1        0.0712
     37 N         141.0971  134.7447  155.4252 N.ar    1  UNL1       -0.2471
     38 C         141.7638  133.4715  154.9958 C.ar    1  UNL1        0.0985
     39 C         142.1348  133.2676  153.5568 C.ar    1  UNL1        0.0203
     40 C         141.8392  134.3369  152.5472 C.ar    1  UNL1       -0.0015
     41 C         141.1726  135.6101  152.9766 C.ar    1  UNL1       -0.0069
     42 C         140.8770  136.6794  151.9671 C.3     1  UNL1        0.0323
@<TRIPOS>UNITY_ATOM_ATTR
27 1
charge -1
@<TRIPOS>BOND
     1    19    20    1
     2    20    21   ar
     3    21    22   ar
     4    22    26    1
     5    26    27   ar
     6    26    28   ar
     7    22    23   ar
     8    23    24   ar
     9    24    25   ar
    10    25    13    1
    11    13    14   ar
    12    14    15   ar
    13    15    16   ar
    14    16     1    1
    15     1     2   am
    16     2     3    2
    17     2     4   am
    18     4    29    1
    19    29    30   ar
    20    30    31   ar
    21    31    32   ar
    22    32    33   ar
    23    33    34   ar
    24     4     5    1
    25     5     6    1
    26     6     7    1
    27     7     8    1
    28     8    35    1
    29    35    36    1
    30    36    37   ar
    31    37    38   ar
    32    38    39   ar
    33    39    40   ar
    34    40    41   ar
    35    41    42    1
    36     8     9    1
    37     9    10    1
    38     5    11    1
    39    11    12    2
    40    16    17   ar
    41    17    18   ar
    42    25    20   ar
    43    18    13   ar
    44    11     1   am
    45    34    29   ar
    46    10     5    1
    47    41    36   ar
@<TRIPOS>MOLECULE
*****
 42 47 0 0 0
SMALL
GASTEIGER

@<TRIPOS>ATOM
      1 N         141.0941  139.4641  156.6449 N.am    1  UNL1       -0.1907
      2 C         140.2451  140.3169  155.7493 C.2     1  UNL1        0.3220
      3 O         139.7505  139.9414  154.3840 O.2     1  UNL1       -0.2512
      4 N         139.9775  141.6111  156.4589 N.am    1  UNL1       -0.2212
      5 C         140.6612  141.5582  157.7931 C.3     1  UNL1        0.1391
      6 C         141.3937  141.3616  159.0871 C.3     1  UNL1        0.0449
      7 C         141.3882  142.4453  160.1242 C.3     1  UNL1        0.0746
      8 N         140.6502  143.7256  159.8672 N.3     1  UNL1       -0.2676
      9 C         139.9177  143.9223  158.5731 C.3     1  UNL1        0.0746
     10 C         139.9232  142.8386  157.5360 C.3     1  UNL1        0.0449
     11 C         141.3513  140.2314  157.9080 C.2     1  UNL1        0.2529
     12 O         142.1571  139.7552  159.0802 O.2     1  UNL1       -0.2724
     13 C         142.6045  135.3303  155.7070 C.ar    1  UNL1       -0.0002
     14 C         143.5750  136.4582  155.8972 C.ar    1  UNL1        0.0013
     15 C         143.0715  137.8361  156.2098 C.ar    1  UNL1        0.0154
     16 C         141.5976  138.0862  156.3323 C.ar    1  UNL1        0.0622
     17 C         140.6272  136.9584  156.1421 C.ar    1  UNL1        0.0154
     18 C         141.1307  135.5804  155.8295 C.ar    1  UNL1        0.0013
     19 C         141.7365  133.9518  153.1877 C.3     1  UNL1        0.0310
     20 C         142.6740  133.2632  154.1348 C.ar    1  UNL1       -0.0218
     21 C         143.1774  131.8851  153.8221 C.ar    1  UNL1       -0.0031
     22 C         144.1149  131.1964  154.7691 C.ar    1  UNL1        0.0137
     23 C         144.5489  131.8856  156.0288 C.ar    1  UNL1        0.0011
     24 C         144.0454  133.2636  156.3414 C.ar    1  UNL1       -0.0003
     25 C         143.1080  133.9523  155.3944 C.ar    1  UNL1       -0.0040
     26 C         144.6184  129.8184  154.4565 C.2     1  UNL1        0.0729
     27 O         144.9551  129.4458  153.0431 O.co2   1  UNL1       -0.5446
     28 O         144.7850  128.8131  155.5572 O.co2   1  UNL1       -0.5446
     29 C         139.1684  142.7570  155.9277 C.ar    1  UNL1        0.1583
     30 C         137.6850  142.7932  156.1475 C.ar    1  UNL1        0.1335
     31 N         136.8759  143.9392  155.6163 N.ar    1  UNL1       -0.2378
     32 C         137.5502  145.0489  154.8652 C.ar    1  UNL1        0.1196
     33 C         139.0335  145.0126  154.6455 C.ar    1  UNL1        0.1210
     34 N         139.8426  143.8667  155.1767 N.ar    1  UNL1       -0.2255
     35 C         140.6448  144.8094  160.9043 C.3     1  UNL1        0.1183
     36 C         139.8308  144.6476  162.1538 C.ar    1  UNL1        0.0712
     37 N         138.3916  144.2346  162.0631 N.ar    1  UNL1       -0.2471
     38 C         137.5776  144.0729  163.3127 C.ar    1  UNL1        0.0985
     39 C         138.2028  144.3242  164.6528 C.ar    1  UNL1        0.0203
     40 C         139.6420  144.7372  164.7435 C.ar    1  UNL1       -0.0015
     41 C         140.4560  144.8989  163.4940 C.ar    1  UNL1       -0.0069
     42 C         141.8951  145.3119  163.5846 C.3     1  UNL1        0.0323
@<TRIPOS>UNITY_ATOM_ATTR
27 1
charge -1
@<TRIPOS>BOND
     1    19    20    1
     2    20    21   ar
     3    21    22   ar
     4    22    26    1
     5    26    27   ar
     6    26    28   ar
     7    22    23   ar
     8    23    24   ar
     9    24    25   ar
    10    25    13    1
    11    13    14   ar
    12    14    15   ar
    13    15    16   ar
    14    16     1    1
    15     1     2   am
    16     2     3    2
    17     2     4   am
    18     4    29    1
    19    29    30   ar
    20    30    31   ar
    21    31    32   ar
    22    32    33   ar
    23    33    34   ar
    24     4     5    1
    25     5     6    1
    26     6     7    1
    27     7     8    1
    28     8    35    1
    29    35    36    1
    30    36    37   ar
    31    37    38   ar
    32    38    39   ar
    33    39    40   ar
    34    40    41   ar
    35    41    42    1
    36     8     9    1
    37     9    10    1
    38     5    11    1
    39    11    12    2
    40    16    17   ar
    41    17    18   ar
    42    25    20   ar
    43    18    13   ar
    44    11     1   am
    45    34    29   ar
    46    10     5    1
    47    41    36   ar
