@<TRIPOS>MOLECULE
*****
 37 40 0 0 0
SMALL
GASTEIGER

@<TRIPOS>ATOM
      1 N         140.0351  137.2538  157.1280 N.am    1  UNL1       -0.2756
      2 C         141.0390  138.2561  157.6153 C.2     1  UNL1        0.2691
      3 O         141.9119  138.9812  156.6342 O.2     1  UNL1       -0.2681
      4 H         139.4623  136.7780  157.7719 H       1  UNL1        0.1553
      5 C         141.1702  138.5335  159.0836 C.ar    1  UNL1        0.1543
      6 N         140.0743  138.4272  160.1023 N.ar    1  UNL1       -0.2323
      7 C         140.6470  138.7938  161.4392 C.ar    1  UNL1        0.1164
      8 S         142.0968  139.1267  161.2469 S.2     1  UNL1       -0.0520
      9 C         142.4202  138.9658  159.7911 C.ar    1  UNL1        0.0957
     10 N         143.7587  139.1966  159.1544 N.pl3   1  UNL1       -0.3508
     11 H         144.5234  139.4808  159.7054 H       1  UNL1        0.1429
     12 H         143.8724  139.0640  158.1855 H       1  UNL1        0.1429
     13 C         139.9007  138.8226  162.7402 C.ar    1  UNL1        0.0787
     14 C         140.0769  137.7099  163.7305 C.ar    1  UNL1        0.1442
     15 F         140.9993  136.5684  163.4199 F       1  UNL1       -0.2040
     16 C         139.3307  137.7385  165.0315 C.ar    1  UNL1        0.0299
     17 C         138.4084  138.8800  165.3419 C.ar    1  UNL1        0.0046
     18 C         138.2322  139.9927  164.3516 C.ar    1  UNL1        0.0299
     19 C         138.9784  139.9639  163.0507 C.ar    1  UNL1        0.1442
     20 F         138.8022  141.0766  162.0603 F       1  UNL1       -0.2040
     21 C         140.6247  135.0673  152.3581 C.3     1  UNL1        0.1552
     22 N         140.1749  135.9715  153.4672 N.ar    1  UNL1       -0.2344
     23 N         139.2292  137.1282  153.3333 N.ar    1  UNL1       -0.1652
     24 C         139.0618  137.7493  154.6883 C.ar    1  UNL1        0.1376
     25 C         139.9040  136.9765  155.6598 C.ar    1  UNL1        0.1034
     26 C         140.5919  135.8778  154.9051 C.ar    1  UNL1        0.1438
     27 N         141.5318  134.8635  155.4862 N.pl3   1  UNL1       -0.2923
     28 C         142.7264  135.4192  156.2036 C.3     1  UNL1        0.0937
     29 C         143.8371  134.6762  156.8852 C.3     1  UNL1        0.0397
     30 C         144.0275  133.1943  157.0176 C.3     1  UNL1        0.0856
     31 N         145.2532  132.7600  157.7653 N.3     1  UNL1       -0.3200
     32 C         143.1544  132.0892  156.5014 C.3     1  UNL1        0.1767
     33 F         143.6225  130.6961  156.8010 F       1  UNL1       -0.2358
     34 C         141.8752  132.1932  155.7251 C.3     1  UNL1        0.0581
     35 C         141.1531  133.4280  155.2733 C.3     1  UNL1        0.0950
     36 H         145.2882  131.7411  157.7983 H       1  UNL1        0.1189
     37 H         145.2209  133.1300  158.7153 H       1  UNL1        0.1189
@<TRIPOS>BOND
     1    21    22    1
     2    22    23   ar
     3    23    24   ar
     4    24    25   ar
     5    25     1    1
     6     1     2   am
     7     2     3    2
     8     2     5    1
     9     5     6   ar
    10     6     7   ar
    11     7    13    1
    12    13    14   ar
    13    14    15    1
    14    14    16   ar
    15    16    17   ar
    16    17    18   ar
    17    18    19   ar
    18    19    20    1
    19     7     8   ar
    20     8     9   ar
    21     9    10    1
    22    25    26   ar
    23    26    27    1
    24    27    28    1
    25    28    29    1
    26    29    30    1
    27    30    31    1
    28    30    32    1
    29    32    33    1
    30    32    34    1
    31    34    35    1
    32    26    22   ar
    33    35    27    1
    34     9     5   ar
    35    19    13   ar
    36     1     4    1
    37    10    11    1
    38    10    12    1
    39    31    36    1
    40    31    37    1
@<TRIPOS>MOLECULE
*****
 37 40 0 0 0
SMALL
GASTEIGER

@<TRIPOS>ATOM
      1 N         140.3172  143.7069  163.3437 N.am    1  UNL1       -0.2756
      2 C         139.1877  142.8288  163.7943 C.2     1  UNL1        0.2691
      3 O         137.8836  142.8448  163.0530 O.2     1  UNL1       -0.2681
      4 H         141.1730  143.6964  163.8301 H       1  UNL1        0.1553
      5 C         139.3620  141.9347  164.9859 C.ar    1  UNL1        0.1543
      6 N         140.2327  142.2111  166.1757 N.ar    1  UNL1       -0.2323
      7 C         140.1051  141.0545  167.1222 C.ar    1  UNL1        0.1164
      8 S         139.1556  140.0633  166.5174 S.2     1  UNL1       -0.0520
      9 C         138.6964  140.6072  165.1972 C.ar    1  UNL1        0.0957
     10 N         137.7395  139.9407  164.2537 N.pl3   1  UNL1       -0.3508
     11 H         137.3529  139.0645  164.4820 H       1  UNL1        0.1429
     12 H         137.4979  140.3794  163.4061 H       1  UNL1        0.1429
     13 C         140.8043  140.9139  168.4418 C.ar    1  UNL1        0.0787
     14 C         142.2987  141.0210  168.5139 C.ar    1  UNL1        0.1442
     15 F         143.0940  141.2687  167.2663 F       1  UNL1       -0.2040
     16 C         142.9980  140.8804  169.8335 C.ar    1  UNL1        0.0299
     17 C         142.2027  140.6327  171.0809 C.ar    1  UNL1        0.0046
     18 C         140.7083  140.5255  171.0089 C.ar    1  UNL1        0.0299
     19 C         140.0091  140.6662  169.6893 C.ar    1  UNL1        0.1442
     20 F         138.5147  140.5591  169.6172 F       1  UNL1       -0.2040
     21 C         140.3260  145.5273  158.3872 C.3     1  UNL1        0.1552
     22 N         140.1468  145.4378  159.8738 N.ar    1  UNL1       -0.2344
     23 N         139.6021  146.5163  160.7628 N.ar    1  UNL1       -0.1652
     24 C         139.5996  145.9991  162.1707 C.ar    1  UNL1        0.1376
     25 C         140.1428  144.6010  162.1520 C.ar    1  UNL1        0.1034
     26 C         140.4810  144.2542  160.7324 C.ar    1  UNL1        0.1438
     27 N         141.0531  142.9522  160.2553 N.pl3   1  UNL1       -0.2923
     28 C         142.5329  142.9425  160.0101 C.3     1  UNL1        0.0937
     29 C         143.3948  141.8102  159.5355 C.3     1  UNL1        0.0397
     30 C         142.9898  140.4082  159.1890 C.3     1  UNL1        0.0856
     31 N         144.0983  139.5025  158.7407 N.3     1  UNL1       -0.3200
     32 C         141.6229  139.7920  159.2314 C.3     1  UNL1        0.1767
     33 F         141.5452  138.3517  158.8200 F       1  UNL1       -0.2358
     34 C         140.3233  140.4257  159.6308 C.3     1  UNL1        0.0581
     35 C         140.0698  141.8322  160.0865 C.3     1  UNL1        0.0950
     36 H         143.7191  138.5792  158.5309 H       1  UNL1        0.1189
     37 H         144.7941  139.4239  159.4824 H       1  UNL1        0.1189
@<TRIPOS>BOND
     1    21    22    1
     2    22    23   ar
     3    23    24   ar
     4    24    25   ar
     5    25     1    1
     6     1     2   am
     7     2     3    2
     8     2     5    1
     9     5     6   ar
    10     6     7   ar
    11     7    13    1
    12    13    14   ar
    13    14    15    1
    14    14    16   ar
    15    16    17   ar
    16    17    18   ar
    17    18    19   ar
    18    19    20    1
    19     7     8   ar
    20     8     9   ar
    21     9    10    1
    22    25    26   ar
    23    26    27    1
    24    27    28    1
    25    28    29    1
    26    29    30    1
    27    30    31    1
    28    30    32    1
    29    32    33    1
    30    32    34    1
    31    34    35    1
    32    26    22   ar
    33    35    27    1
    34     9     5   ar
    35    19    13   ar
    36     1     4    1
    37    10    11    1
    38    10    12    1
    39    31    36    1
    40    31    37    1
@<TRIPOS>MOLECULE
*****
 37 40 0 0 0
SMALL
GASTEIGER

@<TRIPOS>ATOM
      1 N         140.3279  143.7434  163.3278 N.am    1  UNL1       -0.2756
      2 C         139.2016  142.8638  163.7835 C.2     1  UNL1        0.2691
      3 O         137.8957  142.8747  163.0454 O.2     1  UNL1       -0.2681
      4 H         141.1850  143.7363  163.8122 H       1  UNL1        0.1553
      5 C         139.3811  141.9733  164.9772 C.ar    1  UNL1        0.1543
      6 N         140.2593  142.2519  166.1608 N.ar    1  UNL1       -0.2323
      7 C         140.1349  141.0987  167.1120 C.ar    1  UNL1        0.1164
      8 S         139.1797  140.1075  166.5161 S.2     1  UNL1       -0.0520
      9 C         138.7138  140.6480  165.1968 C.ar    1  UNL1        0.0957
     10 N         137.7499  139.9804  164.2612 N.pl3   1  UNL1       -0.3508
     11 H         137.3628  139.1059  164.4948 H       1  UNL1        0.1429
     12 H         137.5043  140.4168  163.4136 H       1  UNL1        0.1429
     13 C         140.8415  140.9610  168.4279 C.ar    1  UNL1        0.0787
     14 C         140.0549  140.6975  169.6776 C.ar    1  UNL1        0.1442
     15 F         138.5616  140.5716  169.6114 F       1  UNL1       -0.2040
     16 C         140.7615  140.5597  170.9936 C.ar    1  UNL1        0.0299
     17 C         142.2548  140.6856  171.0597 C.ar    1  UNL1        0.0046
     18 C         143.0414  140.9492  169.8101 C.ar    1  UNL1        0.0299
     19 C         142.3347  141.0869  168.4941 C.ar    1  UNL1        0.1442
     20 F         143.1213  141.3505  167.2445 F       1  UNL1       -0.2040
     21 C         140.3082  145.5458  158.3648 C.3     1  UNL1        0.1552
     22 N         140.1394  145.4624  159.8529 N.ar    1  UNL1       -0.2344
     23 N         139.6051  146.5462  160.7418 N.ar    1  UNL1       -0.1652
     24 C         139.6107  146.0341  162.1517 C.ar    1  UNL1        0.1376
     25 C         140.1485  144.6339  162.1341 C.ar    1  UNL1        0.1034
     26 C         140.4752  144.2806  160.7135 C.ar    1  UNL1        0.1438
     27 N         141.0387  142.9747  160.2370 N.pl3   1  UNL1       -0.2923
     28 C         142.5162  142.9594  159.9778 C.3     1  UNL1        0.0937
     29 C         143.3701  141.8223  159.5003 C.3     1  UNL1        0.0397
     30 C         142.9577  140.4200  159.1642 C.3     1  UNL1        0.0856
     31 N         144.0592  139.5089  158.7097 N.3     1  UNL1       -0.3200
     32 C         141.5894  139.8080  159.2225 C.3     1  UNL1        0.1767
     33 F         141.5035  138.3661  158.8186 F       1  UNL1       -0.2358
     34 C         140.2956  140.4475  159.6314 C.3     1  UNL1        0.0581
     35 C         140.0506  141.8569  160.0829 C.3     1  UNL1        0.0950
     36 H         143.6753  138.5857  158.5078 H       1  UNL1        0.1189
     37 H         144.7617  139.4316  159.4451 H       1  UNL1        0.1189
@<TRIPOS>BOND
     1    21    22    1
     2    22    23   ar
     3    23    24   ar
     4    24    25   ar
     5    25     1    1
     6     1     2   am
     7     2     3    2
     8     2     5    1
     9     5     6   ar
    10     6     7   ar
    11     7    13    1
    12    13    14   ar
    13    14    15    1
    14    14    16   ar
    15    16    17   ar
    16    17    18   ar
    17    18    19   ar
    18    19    20    1
    19     7     8   ar
    20     8     9   ar
    21     9    10    1
    22    25    26   ar
    23    26    27    1
    24    27    28    1
    25    28    29    1
    26    29    30    1
    27    30    31    1
    28    30    32    1
    29    32    33    1
    30    32    34    1
    31    34    35    1
    32    26    22   ar
    33    35    27    1
    34     9     5   ar
    35    19    13   ar
    36     1     4    1
    37    10    11    1
    38    10    12    1
    39    31    36    1
    40    31    37    1
@<TRIPOS>MOLECULE
*****
 37 40 0 0 0
SMALL
GASTEIGER

@<TRIPOS>ATOM
      1 N         142.1915  144.5697  157.8246 N.am    1  UNL1       -0.2756
      2 C         140.9906  144.1265  157.0427 C.2     1  UNL1        0.2691
      3 O         140.6396  142.6700  156.9687 O.2     1  UNL1       -0.2681
      4 H         142.4219  145.5256  157.8732 H       1  UNL1        0.1553
      5 C         140.1407  145.1397  156.3350 C.ar    1  UNL1        0.1543
      6 N         140.4551  146.5978  156.1761 N.ar    1  UNL1       -0.2323
      7 C         139.3359  147.2320  155.4048 C.ar    1  UNL1        0.1164
      8 S         138.3298  146.1659  155.0868 S.2     1  UNL1       -0.0520
      9 C         138.8271  144.8729  155.6617 C.ar    1  UNL1        0.0957
     10 N         138.1328  143.5458  155.5780 N.pl3   1  UNL1       -0.3508
     11 H         137.2688  143.4708  155.1121 H       1  UNL1        0.1429
     12 H         138.5411  142.7498  155.9890 H       1  UNL1        0.1429
     13 C         139.2397  148.6784  155.0191 C.ar    1  UNL1        0.0787
     14 C         138.6331  149.6689  155.9682 C.ar    1  UNL1        0.1442
     15 F         138.1227  149.2131  157.3030 F       1  UNL1       -0.2040
     16 C         138.5370  151.1154  155.5826 C.ar    1  UNL1        0.0299
     17 C         139.0474  151.5711  154.2477 C.ar    1  UNL1        0.0046
     18 C         139.6540  150.5806  153.2986 C.ar    1  UNL1        0.0299
     19 C         139.7501  149.1342  153.6843 C.ar    1  UNL1        0.1442
     20 F         140.3567  148.1437  152.7352 F       1  UNL1       -0.2040
     21 C         144.0877  141.3039  161.5151 C.3     1  UNL1        0.1552
     22 N         143.9131  142.0553  160.2287 N.ar    1  UNL1       -0.2344
     23 N         144.7859  141.9392  159.0142 N.ar    1  UNL1       -0.1652
     24 C         144.2472  142.8669  157.9659 C.ar    1  UNL1        0.1376
     25 C         143.0415  143.5565  158.5324 C.ar    1  UNL1        0.1034
     26 C         142.8350  143.0548  159.9308 C.ar    1  UNL1        0.1438
     27 N         141.7423  143.4784  160.8670 N.pl3   1  UNL1       -0.2923
     28 C         140.3542  143.0648  160.4766 C.3     1  UNL1        0.0937
     29 C         139.0631  143.3303  161.1927 C.3     1  UNL1        0.0397
     30 C         138.8412  144.0747  162.4757 C.3     1  UNL1        0.0856
     31 N         137.4165  144.1687  162.9356 N.3     1  UNL1       -0.3200
     32 C         139.8555  144.7378  163.3598 C.3     1  UNL1        0.1767
     33 F         139.3110  145.4070  164.5868 F       1  UNL1       -0.2358
     34 C         141.3423  144.8200  163.1791 C.3     1  UNL1        0.0581
     35 C         142.1819  144.2595  162.0697 C.3     1  UNL1        0.0950
     36 H         137.3755  144.6908  163.8109 H       1  UNL1        0.1189
     37 H         137.0437  143.2305  163.0815 H       1  UNL1        0.1189
@<TRIPOS>BOND
     1    21    22    1
     2    22    23   ar
     3    23    24   ar
     4    24    25   ar
     5    25     1    1
     6     1     2   am
     7     2     3    2
     8     2     5    1
     9     5     6   ar
    10     6     7   ar
    11     7    13    1
    12    13    14   ar
    13    14    15    1
    14    14    16   ar
    15    16    17   ar
    16    17    18   ar
    17    18    19   ar
    18    19    20    1
    19     7     8   ar
    20     8     9   ar
    21     9    10    1
    22    25    26   ar
    23    26    27    1
    24    27    28    1
    25    28    29    1
    26    29    30    1
    27    30    31    1
    28    30    32    1
    29    32    33    1
    30    32    34    1
    31    34    35    1
    32    26    22   ar
    33    35    27    1
    34     9     5   ar
    35    19    13   ar
    36     1     4    1
    37    10    11    1
    38    10    12    1
    39    31    36    1
    40    31    37    1
@<TRIPOS>MOLECULE
*****
 37 40 0 0 0
SMALL
GASTEIGER

@<TRIPOS>ATOM
      1 N         139.5836  136.9887  156.5323 N.am    1  UNL1       -0.2756
      2 C         140.1313  138.2714  157.0843 C.2     1  UNL1        0.2691
      3 O         140.9011  139.2024  156.1950 O.2     1  UNL1       -0.2681
      4 H         139.0784  136.3777  157.1159 H       1  UNL1        0.1553
      5 C         139.9093  138.6232  158.5254 C.ar    1  UNL1        0.1543
      6 N         140.7206  138.1327  159.6878 N.ar    1  UNL1       -0.2323
      7 C         140.1497  138.7335  160.9380 C.ar    1  UNL1        0.1164
      8 S         138.9856  139.5953  160.5483 S.2     1  UNL1       -0.0520
      9 C         138.8370  139.5271  159.0573 C.ar    1  UNL1        0.0957
     10 N         137.7983  140.2382  158.2413 N.pl3   1  UNL1       -0.3508
     11 H         137.1330  140.8130  158.6841 H       1  UNL1        0.1429
     12 H         137.7820  140.1300  157.2629 H       1  UNL1        0.1429
     13 C         140.6544  138.5114  162.3330 C.ar    1  UNL1        0.0787
     14 C         139.8160  137.7584  163.3229 C.ar    1  UNL1        0.1442
     15 F         138.4728  137.2274  162.9178 F       1  UNL1       -0.2040
     16 C         140.3206  137.5363  164.7179 C.ar    1  UNL1        0.0299
     17 C         141.6638  138.0673  165.1229 C.ar    1  UNL1        0.0046
     18 C         142.5022  138.8203  164.1331 C.ar    1  UNL1        0.0299
     19 C         141.9975  139.0424  162.7380 C.ar    1  UNL1        0.1442
     20 F         142.8360  139.7954  161.7482 F       1  UNL1       -0.2040
     21 C         141.4253  134.6888  152.1505 C.3     1  UNL1        0.1552
     22 N         140.6521  135.5799  153.0770 N.ar    1  UNL1       -0.2344
     23 N         139.6424  136.6117  152.6697 N.ar    1  UNL1       -0.1652
     24 C         139.1193  137.2650  153.9144 C.ar    1  UNL1        0.1376
     25 C         139.8057  136.6370  155.0911 C.ar    1  UNL1        0.1034
     26 C         140.7530  135.5955  154.5735 C.ar    1  UNL1        0.1438
     27 N         141.6447  134.7230  155.4064 N.pl3   1  UNL1       -0.2923
     28 C         141.3606  133.2515  155.3408 C.3     1  UNL1        0.0937
     29 C         142.0643  132.1308  156.0473 C.3     1  UNL1        0.0397
     30 C         143.2255  132.2049  156.9938 C.3     1  UNL1        0.0856
     31 N         143.7058  130.8924  157.5386 N.3     1  UNL1       -0.3200
     32 C         143.9701  133.4178  157.4676 C.3     1  UNL1        0.1767
     33 F         145.0964  133.1578  158.4235 F       1  UNL1       -0.2358
     34 C         143.7372  134.8562  157.1119 C.3     1  UNL1        0.0581
     35 C         142.7023  135.4370  156.1946 C.3     1  UNL1        0.0950
     36 H         144.4927  131.0528  158.1674 H       1  UNL1        0.1189
     37 H         144.0025  130.2928  156.7686 H       1  UNL1        0.1189
@<TRIPOS>BOND
     1    21    22    1
     2    22    23   ar
     3    23    24   ar
     4    24    25   ar
     5    25     1    1
     6     1     2   am
     7     2     3    2
     8     2     5    1
     9     5     6   ar
    10     6     7   ar
    11     7    13    1
    12    13    14   ar
    13    14    15    1
    14    14    16   ar
    15    16    17   ar
    16    17    18   ar
    17    18    19   ar
    18    19    20    1
    19     7     8   ar
    20     8     9   ar
    21     9    10    1
    22    25    26   ar
    23    26    27    1
    24    27    28    1
    25    28    29    1
    26    29    30    1
    27    30    31    1
    28    30    32    1
    29    32    33    1
    30    32    34    1
    31    34    35    1
    32    26    22   ar
    33    35    27    1
    34     9     5   ar
    35    19    13   ar
    36     1     4    1
    37    10    11    1
    38    10    12    1
    39    31    36    1
    40    31    37    1
@<TRIPOS>MOLECULE
*****
 37 40 0 0 0
SMALL
GASTEIGER

@<TRIPOS>ATOM
      1 N         140.5028  143.2531  161.2508 N.am    1  UNL1       -0.2756
      2 C         139.2373  142.9161  161.9821 C.2     1  UNL1        0.2691
      3 O         137.9095  143.3012  161.3999 O.2     1  UNL1       -0.2681
      4 H         141.3743  143.0004  161.6328 H       1  UNL1        0.1553
      5 C         139.2994  142.1942  163.2954 C.ar    1  UNL1        0.1543
      6 N         140.4644  142.1813  164.2402 N.ar    1  UNL1       -0.2323
      7 C         140.0925  141.3376  165.4233 C.ar    1  UNL1        0.1164
      8 S         138.6976  140.8291  165.2098 S.2     1  UNL1       -0.0520
      9 C         138.2075  141.3585  163.8947 C.ar    1  UNL1        0.0957
     10 N         136.8615  141.0980  163.2858 N.pl3   1  UNL1       -0.3508
     11 H         136.2085  140.5329  163.7585 H       1  UNL1        0.1429
     12 H         136.6313  141.4920  162.4135 H       1  UNL1        0.1429
     13 C         140.9628  141.0525  166.6114 C.ar    1  UNL1        0.0787
     14 C         141.0573  142.0493  167.7282 C.ar    1  UNL1        0.1442
     15 F         140.2816  143.3313  167.6570 F       1  UNL1       -0.2040
     16 C         141.9275  141.7643  168.9163 C.ar    1  UNL1        0.0299
     17 C         142.7032  140.4823  168.9874 C.ar    1  UNL1        0.0046
     18 C         142.6086  139.4855  167.8706 C.ar    1  UNL1        0.0299
     19 C         141.7384  139.7706  166.6825 C.ar    1  UNL1        0.1442
     20 F         141.6438  138.7738  165.5657 F       1  UNL1       -0.2040
     21 C         140.3745  144.2435  156.0659 C.3     1  UNL1        0.1552
     22 N         140.3817  144.4303  157.5542 N.ar    1  UNL1       -0.2344
     23 N         140.3085  145.7418  158.2786 N.ar    1  UNL1       -0.1652
     24 C         140.3450  145.4604  159.7515 C.ar    1  UNL1        0.1376
     25 C         140.4407  143.9750  159.9374 C.ar    1  UNL1        0.1034
     26 C         140.4634  143.3384  158.5794 C.ar    1  UNL1        0.1438
     27 N         140.5523  141.8681  158.2964 N.pl3   1  UNL1       -0.2923
     28 C         139.2812  141.2153  157.8398 C.3     1  UNL1        0.0937
     29 C         139.0444  139.7780  157.4814 C.3     1  UNL1        0.0397
     30 C         140.0199  138.6388  157.4912 C.3     1  UNL1        0.0856
     31 N         139.4693  137.3069  157.0754 N.3     1  UNL1       -0.3200
     32 C         141.4734  138.6552  157.8617 C.3     1  UNL1        0.1767
     33 F         142.1839  137.3376  157.7674 F       1  UNL1       -0.2358
     34 C         142.3102  139.8150  158.3139 C.3     1  UNL1        0.0581
     35 C         141.9002  141.2449  158.5074 C.3     1  UNL1        0.0950
     36 H         140.2087  136.6055  157.1165 H       1  UNL1        0.1189
     37 H         139.1123  137.3692  156.1220 H       1  UNL1        0.1189
@<TRIPOS>BOND
     1    21    22    1
     2    22    23   ar
     3    23    24   ar
     4    24    25   ar
     5    25     1    1
     6     1     2   am
     7     2     3    2
     8     2     5    1
     9     5     6   ar
    10     6     7   ar
    11     7    13    1
    12    13    14   ar
    13    14    15    1
    14    14    16   ar
    15    16    17   ar
    16    17    18   ar
    17    18    19   ar
    18    19    20    1
    19     7     8   ar
    20     8     9   ar
    21     9    10    1
    22    25    26   ar
    23    26    27    1
    24    27    28    1
    25    28    29    1
    26    29    30    1
    27    30    31    1
    28    30    32    1
    29    32    33    1
    30    32    34    1
    31    34    35    1
    32    26    22   ar
    33    35    27    1
    34     9     5   ar
    35    19    13   ar
    36     1     4    1
    37    10    11    1
    38    10    12    1
    39    31    36    1
    40    31    37    1
@<TRIPOS>MOLECULE
*****
 37 40 0 0 0
SMALL
GASTEIGER

@<TRIPOS>ATOM
      1 N         142.8576  139.1234  163.6228 N.am    1  UNL1       -0.2756
      2 C         141.5320  138.8817  162.9637 C.2     1  UNL1        0.2691
      3 O         140.2954  138.7315  163.7994 O.2     1  UNL1       -0.2681
      4 H         143.6693  139.2219  163.0743 H       1  UNL1        0.1553
      5 C         141.4430  138.7903  161.4692 C.ar    1  UNL1        0.1543
      6 N         142.5497  139.0844  160.5003 N.ar    1  UNL1       -0.2323
      7 C         142.0223  138.8645  159.1135 C.ar    1  UNL1        0.1164
      8 S         140.5897  138.4345  159.2252 S.2     1  UNL1       -0.0520
      9 C         140.2316  138.3887  160.6810 C.ar    1  UNL1        0.0957
     10 N         138.8965  138.0080  161.2491 N.pl3   1  UNL1       -0.3508
     11 H         138.1586  137.7581  160.6472 H       1  UNL1        0.1429
     12 H         138.7581  138.0080  162.2238 H       1  UNL1        0.1429
     13 C         142.7925  139.0433  157.8387 C.ar    1  UNL1        0.0787
     14 C         142.9816  137.8825  156.9077 C.ar    1  UNL1        0.1442
     15 F         142.4005  136.5430  157.2514 F       1  UNL1       -0.2040
     16 C         143.7517  138.0612  155.6329 C.ar    1  UNL1        0.0299
     17 C         144.3327  139.4008  155.2893 C.ar    1  UNL1        0.0046
     18 C         144.1436  140.5615  156.2203 C.ar    1  UNL1        0.0299
     19 C         143.3734  140.3828  157.4951 C.ar    1  UNL1        0.1442
     20 F         143.1844  141.5435  158.4260 F       1  UNL1       -0.2040
     21 C         142.5087  140.9264  168.5733 C.3     1  UNL1        0.1552
     22 N         142.7863  140.0435  167.3929 N.ar    1  UNL1       -0.2344
     23 N         143.3813  138.6674  167.4415 N.ar    1  UNL1       -0.1652
     24 C         143.4805  138.1552  166.0352 C.ar    1  UNL1        0.1376
     25 C         142.9467  139.2148  165.1173 C.ar    1  UNL1        0.1034
     26 C         142.5177  140.3818  165.9564 C.ar    1  UNL1        0.1438
     27 N         141.9243  141.6623  165.4481 N.pl3   1  UNL1       -0.2923
     28 C         142.8590  142.5560  164.6879 C.3     1  UNL1        0.0937
     29 C         142.5749  143.8879  164.0591 C.3     1  UNL1        0.0397
     30 C         141.2862  144.6549  164.0352 C.3     1  UNL1        0.0856
     31 N         141.3256  145.9715  163.3173 N.3     1  UNL1       -0.3200
     32 C         139.9631  144.2797  164.6342 C.3     1  UNL1        0.1767
     33 F         138.8546  145.2705  164.4361 F       1  UNL1       -0.2358
     34 C         139.6021  143.0446  165.4050 C.3     1  UNL1        0.0581
     35 C         140.4750  141.8798  165.7672 C.3     1  UNL1        0.0950
     36 H         140.4053  146.4093  163.3592 H       1  UNL1        0.1189
     37 H         141.5859  145.8197  162.3428 H       1  UNL1        0.1189
@<TRIPOS>BOND
     1    21    22    1
     2    22    23   ar
     3    23    24   ar
     4    24    25   ar
     5    25     1    1
     6     1     2   am
     7     2     3    2
     8     2     5    1
     9     5     6   ar
    10     6     7   ar
    11     7    13    1
    12    13    14   ar
    13    14    15    1
    14    14    16   ar
    15    16    17   ar
    16    17    18   ar
    17    18    19   ar
    18    19    20    1
    19     7     8   ar
    20     8     9   ar
    21     9    10    1
    22    25    26   ar
    23    26    27    1
    24    27    28    1
    25    28    29    1
    26    29    30    1
    27    30    31    1
    28    30    32    1
    29    32    33    1
    30    32    34    1
    31    34    35    1
    32    26    22   ar
    33    35    27    1
    34     9     5   ar
    35    19    13   ar
    36     1     4    1
    37    10    11    1
    38    10    12    1
    39    31    36    1
    40    31    37    1
@<TRIPOS>MOLECULE
*****
 37 40 0 0 0
SMALL
GASTEIGER

@<TRIPOS>ATOM
      1 N         140.5840  140.7452  159.0349 N.am    1  UNL1       -0.2756
      2 C         140.4470  139.2534  159.1106 C.2     1  UNL1        0.2691
      3 O         139.5709  138.6329  160.1583 O.2     1  UNL1       -0.2681
      4 H         141.1590  141.1524  158.3473 H       1  UNL1        0.1553
      5 C         141.1861  138.3820  158.1388 C.ar    1  UNL1        0.1543
      6 N         140.5678  137.4011  157.1872 N.ar    1  UNL1       -0.2323
      7 C         141.6728  136.7514  156.4083 C.ar    1  UNL1        0.1164
      8 S         142.9740  137.3308  156.8784 S.2     1  UNL1       -0.0520
      9 C         142.6733  138.3385  157.9479 C.ar    1  UNL1        0.0957
     10 N         143.6825  139.1588  158.6954 N.pl3   1  UNL1       -0.3508
     11 H         144.6418  139.0586  158.4980 H       1  UNL1        0.1429
     12 H         143.3856  139.7972  159.3835 H       1  UNL1        0.1429
     13 C         141.5058  135.7059  155.3456 C.ar    1  UNL1        0.0787
     14 C         141.9702  134.3017  155.5956 C.ar    1  UNL1        0.1442
     15 F         142.6016  133.9430  156.9082 F       1  UNL1       -0.2040
     16 C         141.8032  133.2561  154.5331 C.ar    1  UNL1        0.0299
     17 C         141.1718  133.6150  153.2206 C.ar    1  UNL1        0.0046
     18 C         140.7074  135.0191  152.9706 C.ar    1  UNL1        0.0299
     19 C         140.8744  136.0647  154.0332 C.ar    1  UNL1        0.1442
     20 F         140.4100  137.4688  153.7832 F       1  UNL1       -0.2040
     21 C         139.3661  143.5722  163.3251 C.3     1  UNL1        0.1552
     22 N         139.2850  142.9160  161.9787 N.ar    1  UNL1       -0.2344
     23 N         138.1298  142.9990  161.0255 N.ar    1  UNL1       -0.1652
     24 C         138.4757  142.1959  159.8068 C.ar    1  UNL1        0.1376
     25 C         139.8449  141.6166  160.0067 C.ar    1  UNL1        0.1034
     26 C         140.3450  142.0616  161.3490 C.ar    1  UNL1        0.1438
     27 N         141.6721  141.7134  161.9551 N.pl3   1  UNL1       -0.2923
     28 C         142.8024  142.6425  161.6245 C.3     1  UNL1        0.0937
     29 C         144.2333  142.5698  162.0688 C.3     1  UNL1        0.0397
     30 C         144.8872  141.5501  162.9534 C.3     1  UNL1        0.0856
     31 N         146.3500  141.7566  163.2136 N.3     1  UNL1       -0.3200
     32 C         144.2719  140.3512  163.6122 C.3     1  UNL1        0.1767
     33 F         145.2006  139.5174  164.4441 F       1  UNL1       -0.2358
     34 C         142.8505  139.8759  163.5491 C.3     1  UNL1        0.0581
     35 C         141.6936  140.4822  162.8116 C.3     1  UNL1        0.0950
     36 H         146.6952  141.0140  163.8217 H       1  UNL1        0.1189
     37 H         146.4906  142.6597  163.6663 H       1  UNL1        0.1189
@<TRIPOS>BOND
     1    21    22    1
     2    22    23   ar
     3    23    24   ar
     4    24    25   ar
     5    25     1    1
     6     1     2   am
     7     2     3    2
     8     2     5    1
     9     5     6   ar
    10     6     7   ar
    11     7    13    1
    12    13    14   ar
    13    14    15    1
    14    14    16   ar
    15    16    17   ar
    16    17    18   ar
    17    18    19   ar
    18    19    20    1
    19     7     8   ar
    20     8     9   ar
    21     9    10    1
    22    25    26   ar
    23    26    27    1
    24    27    28    1
    25    28    29    1
    26    29    30    1
    27    30    31    1
    28    30    32    1
    29    32    33    1
    30    32    34    1
    31    34    35    1
    32    26    22   ar
    33    35    27    1
    34     9     5   ar
    35    19    13   ar
    36     1     4    1
    37    10    11    1
    38    10    12    1
    39    31    36    1
    40    31    37    1
@<TRIPOS>MOLECULE
*****
 37 40 0 0 0
SMALL
GASTEIGER

@<TRIPOS>ATOM
      1 N         139.3076  139.6373  161.3434 N.am    1  UNL1       -0.2756
      2 C         138.2432  140.6327  160.9882 C.2     1  UNL1        0.2691
      3 O         137.3530  141.1926  162.0579 O.2     1  UNL1       -0.2681
      4 H         139.8918  139.2698  160.6413 H       1  UNL1        0.1553
      5 C         138.0689  141.0683  159.5635 C.ar    1  UNL1        0.1543
      6 N         137.4656  140.2516  158.4594 N.ar    1  UNL1       -0.2323
      7 C         137.4911  141.0755  157.2062 C.ar    1  UNL1        0.1164
      8 S         138.1102  142.4014  157.5359 S.2     1  UNL1       -0.0520
      9 C         138.4672  142.3969  158.9926 C.ar    1  UNL1        0.0957
     10 N         139.1099  143.5234  159.7464 N.pl3   1  UNL1       -0.3508
     11 H         139.3353  144.3615  159.2815 H       1  UNL1        0.1429
     12 H         139.3063  143.4248  160.7061 H       1  UNL1        0.1429
     13 C         136.9861  140.6484  155.8598 C.ar    1  UNL1        0.0787
     14 C         135.5232  140.3877  155.6557 C.ar    1  UNL1        0.1442
     15 F         134.5652  140.5539  156.7979 F       1  UNL1       -0.2040
     16 C         135.0182  139.9606  154.3093 C.ar    1  UNL1        0.0299
     17 C         135.9763  139.7944  153.1672 C.ar    1  UNL1        0.0046
     18 C         137.4392  140.0551  153.3713 C.ar    1  UNL1        0.0299
     19 C         137.9442  140.4822  154.7177 C.ar    1  UNL1        0.1442
     20 F         139.4071  140.7430  154.9219 F       1  UNL1       -0.2040
     21 C         140.7030  139.5571  166.4352 C.3     1  UNL1        0.1552
     22 N         140.1233  139.1648  165.1086 N.ar    1  UNL1       -0.2344
     23 N         139.3768  137.8978  164.8124 N.ar    1  UNL1       -0.1652
     24 C         138.9804  137.9206  163.3660 C.ar    1  UNL1        0.1376
     25 C         139.4819  139.2017  162.7681 C.ar    1  UNL1        0.1034
     26 C         140.1882  139.9706  163.8451 C.ar    1  UNL1        0.1438
     27 N         140.8442  141.3102  163.6863 N.pl3   1  UNL1       -0.2923
     28 C         142.1733  141.3055  162.9908 C.3     1  UNL1        0.0937
     29 C         143.0709  142.4669  162.6813 C.3     1  UNL1        0.0397
     30 C         142.8610  143.9194  162.9907 C.3     1  UNL1        0.0856
     31 N         143.9551  144.8442  162.5459 N.3     1  UNL1       -0.3200
     32 C         141.7019  144.5697  163.6861 C.3     1  UNL1        0.1767
     33 F         141.7900  146.0586  163.8447 F       1  UNL1       -0.2358
     34 C         140.4662  143.9278  164.2438 C.3     1  UNL1        0.0581
     35 C         140.0845  142.4771  164.2439 C.3     1  UNL1        0.0950
     36 H         143.7160  145.8020  162.8026 H       1  UNL1        0.1189
     37 H         144.0636  144.7805  161.5337 H       1  UNL1        0.1189
@<TRIPOS>BOND
     1    21    22    1
     2    22    23   ar
     3    23    24   ar
     4    24    25   ar
     5    25     1    1
     6     1     2   am
     7     2     3    2
     8     2     5    1
     9     5     6   ar
    10     6     7   ar
    11     7    13    1
    12    13    14   ar
    13    14    15    1
    14    14    16   ar
    15    16    17   ar
    16    17    18   ar
    17    18    19   ar
    18    19    20    1
    19     7     8   ar
    20     8     9   ar
    21     9    10    1
    22    25    26   ar
    23    26    27    1
    24    27    28    1
    25    28    29    1
    26    29    30    1
    27    30    31    1
    28    30    32    1
    29    32    33    1
    30    32    34    1
    31    34    35    1
    32    26    22   ar
    33    35    27    1
    34     9     5   ar
    35    19    13   ar
    36     1     4    1
    37    10    11    1
    38    10    12    1
    39    31    36    1
    40    31    37    1
