@<TRIPOS>MOLECULE
*****
 33 36 0 0 0
SMALL
GASTEIGER

@<TRIPOS>ATOM
      1 C         139.2240  141.7813  164.4138 C.ar    1  UNL1        0.1488
      2 C         138.0672  142.6899  164.7069 C.ar    1  UNL1        0.0390
      3 C         137.9313  143.9916  163.9740 C.ar    1  UNL1        0.0417
      4 C         138.9524  144.3845  162.9478 C.ar    1  UNL1        0.1640
      5 N         139.0809  145.5959  162.0724 N.ar    1  UNL1       -0.2234
      6 C         140.3172  145.4359  161.2383 C.ar    1  UNL1        0.1197
      7 C         140.9528  144.1257  161.5981 C.ar    1  UNL1        0.1037
      8 N         140.1092  143.4759  162.6546 N.ar    1  UNL1       -0.2096
      9 N         140.2451  142.1743  163.3876 N.ar    1  UNL1       -0.1489
     10 C         142.2109  143.5638  161.0054 C.ar    1  UNL1        0.0223
     11 C         142.3911  143.5355  159.5165 C.ar    1  UNL1        0.0017
     12 C         143.6493  142.9736  158.9238 C.ar    1  UNL1        0.0032
     13 C         144.7274  142.4401  159.8200 C.ar    1  UNL1        0.0372
     14 C         144.5472  142.4685  161.3088 C.ar    1  UNL1        0.1469
     15 C         143.2890  143.0303  161.9015 C.ar    1  UNL1        0.0387
     16 O         145.6253  141.9349  162.2051 O.3     1  UNL1       -0.4045
     17 C         145.2622  141.1367  163.4220 C.3     1  UNL1        0.5753
     18 F         144.8990  140.3384  164.6390 F       1  UNL1       -0.1328
     19 F         145.7394  142.2563  164.2988 F       1  UNL1       -0.1328
     20 F         144.7849  140.0171  162.5452 F       1  UNL1       -0.1328
     21 N         139.3599  140.4796  165.1468 N.pl3   1  UNL1       -0.3184
     22 H         138.8611  139.6880  164.8407 H       1  UNL1        0.1482
     23 C         142.0476  140.1932  168.7445 C.3     1  UNL1        0.0248
     24 C         142.6415  140.2896  167.3705 C.3     1  UNL1        0.0040
     25 C         141.7456  140.3851  166.1712 C.3     1  UNL1        0.0196
     26 C         140.2558  140.3842  166.3460 C.3     1  UNL1        0.0704
     27 C         139.6620  140.2878  167.7201 C.3     1  UNL1        0.0196
     28 C         140.5579  140.1923  168.9193 C.3     1  UNL1        0.0040
     29 C         143.2990  141.5472  169.7935 C.3     1  UNL1        0.0293
     30 C         142.9436  140.0978  169.9437 C.3     1  UNL1        0.0884
     31 C         142.5881  138.6483  170.0939 C.3     1  UNL1        0.0293
     32 O         143.8395  140.0023  171.1430 O.3     1  UNL1       -0.3867
     33 H         143.8159  139.0980  171.4931 H       1  UNL1        0.2102
@<TRIPOS>BOND
     1    29    30    1
     2    30    31    1
     3    30    32    1
     4    23    30    1
     5    23    24    1
     6    24    25    1
     7    25    26    1
     8    26    21    1
     9    21     1    1
    10     1     2   ar
    11     2     3   ar
    12     3     4   ar
    13     4     5   ar
    14     5     6   ar
    15     6     7   ar
    16     7    10    1
    17    10    11   ar
    18    11    12   ar
    19    12    13   ar
    20    13    14   ar
    21    14    16    1
    22    16    17    1
    23    17    18    1
    24    17    19    1
    25    17    20    1
    26    14    15   ar
    27     7     8   ar
    28     8     9   ar
    29    26    27    1
    30    27    28    1
    31    28    23    1
    32     9     1   ar
    33     8     4   ar
    34    15    10   ar
    35    32    33    1
    36    21    22    1
@<TRIPOS>MOLECULE
*****
 33 36 0 0 0
SMALL
GASTEIGER

@<TRIPOS>ATOM
      1 C         141.2746  138.8178  164.7951 C.ar    1  UNL1        0.1488
      2 C         140.4907  137.5681  164.5237 C.ar    1  UNL1        0.0390
      3 C         139.3126  137.6084  163.5962 C.ar    1  UNL1        0.0417
      4 C         138.9183  138.8984  162.9402 C.ar    1  UNL1        0.1640
      5 N         137.8125  139.2426  161.9867 N.ar    1  UNL1       -0.2234
      6 C         137.9130  140.7051  161.6690 C.ar    1  UNL1        0.1197
      7 C         139.0809  141.2647  162.4260 C.ar    1  UNL1        0.1037
      8 N         139.7021  140.1481  163.2116 N.ar    1  UNL1       -0.2096
      9 N         140.8803  140.1078  164.1391 N.ar    1  UNL1       -0.1489
     10 C         139.5458  142.6906  162.4016 C.ar    1  UNL1        0.0223
     11 C         138.5442  143.8068  162.4327 C.ar    1  UNL1        0.0017
     12 C         139.0092  145.2327  162.4083 C.ar    1  UNL1        0.0032
     13 C         140.4758  145.5425  162.3529 C.ar    1  UNL1        0.0372
     14 C         141.4774  144.4264  162.3219 C.ar    1  UNL1        0.1469
     15 C         141.0124  143.0005  162.3462 C.ar    1  UNL1        0.0387
     16 O         142.9441  144.7362  162.2665 O.3     1  UNL1       -0.4045
     17 C         143.8081  144.4919  163.4681 C.3     1  UNL1        0.5753
     18 F         144.6722  144.2476  164.6697 F       1  UNL1       -0.1328
     19 F         142.9963  145.4795  164.2526 F       1  UNL1       -0.1328
     20 F         144.6200  143.5043  162.6835 F       1  UNL1       -0.1328
     21 N         142.4528  138.7776  165.7226 N.pl3   1  UNL1       -0.3184
     22 H         143.1305  138.0699  165.6271 H       1  UNL1        0.1482
     23 C         142.8899  141.8917  168.9415 C.3     1  UNL1        0.0248
     24 C         142.5793  140.4712  169.3095 C.3     1  UNL1        0.0040
     25 C         142.4336  139.4331  168.2366 C.3     1  UNL1        0.0196
     26 C         142.5985  139.8156  166.7956 C.3     1  UNL1        0.0704
     27 C         142.9091  141.2363  166.4275 C.3     1  UNL1        0.0196
     28 C         143.0547  142.2743  167.5005 C.3     1  UNL1        0.0040
     29 C         141.5660  143.2196  169.9335 C.3     1  UNL1        0.0293
     30 C         143.0355  142.9297  170.0144 C.3     1  UNL1        0.0884
     31 C         144.5050  142.6399  170.0953 C.3     1  UNL1        0.0293
     32 O         143.1811  143.9678  171.0874 O.3     1  UNL1       -0.3867
     33 H         144.1085  144.0149  171.3681 H       1  UNL1        0.2102
@<TRIPOS>BOND
     1    29    30    1
     2    30    31    1
     3    30    32    1
     4    23    30    1
     5    23    24    1
     6    24    25    1
     7    25    26    1
     8    26    21    1
     9    21     1    1
    10     1     2   ar
    11     2     3   ar
    12     3     4   ar
    13     4     5   ar
    14     5     6   ar
    15     6     7   ar
    16     7    10    1
    17    10    11   ar
    18    11    12   ar
    19    12    13   ar
    20    13    14   ar
    21    14    16    1
    22    16    17    1
    23    17    18    1
    24    17    19    1
    25    17    20    1
    26    14    15   ar
    27     7     8   ar
    28     8     9   ar
    29    26    27    1
    30    27    28    1
    31    28    23    1
    32     9     1   ar
    33     8     4   ar
    34    15    10   ar
    35    32    33    1
    36    21    22    1
@<TRIPOS>MOLECULE
*****
 33 36 0 0 0
SMALL
GASTEIGER

@<TRIPOS>ATOM
      1 C         140.5760  139.1877  160.5062 C.ar    1  UNL1        0.1488
      2 C         141.2422  138.5050  159.3487 C.ar    1  UNL1        0.0390
      3 C         142.4285  139.1395  158.6854 C.ar    1  UNL1        0.0417
      4 C         142.9486  140.4568  159.1797 C.ar    1  UNL1        0.1640
      5 N         144.0915  141.3176  158.7291 N.ar    1  UNL1       -0.2234
      6 C         144.1316  142.5323  159.6082 C.ar    1  UNL1        0.1197
      7 C         143.0135  142.4222  160.6021 C.ar    1  UNL1        0.1037
      8 N         142.2824  141.1395  160.3372 N.ar    1  UNL1       -0.2096
      9 N         141.0961  140.5050  161.0005 N.ar    1  UNL1       -0.1489
     10 C         142.6843  143.4197  161.6729 C.ar    1  UNL1        0.0223
     11 C         143.7802  144.0138  162.5071 C.ar    1  UNL1        0.0017
     12 C         143.4510  145.0113  163.5779 C.ar    1  UNL1        0.0032
     13 C         142.0259  145.4148  163.8145 C.ar    1  UNL1        0.0372
     14 C         140.9299  144.8208  162.9803 C.ar    1  UNL1        0.1469
     15 C         141.2591  143.8233  161.9095 C.ar    1  UNL1        0.0387
     16 O         139.5046  145.2243  163.2168 O.3     1  UNL1       -0.4045
     17 C         138.5710  144.2946  163.9338 C.3     1  UNL1        0.5753
     18 F         137.6374  143.3649  164.6508 F       1  UNL1       -0.1328
     19 F         139.4220  144.3899  165.1654 F       1  UNL1       -0.1328
     20 F         137.7201  144.1994  162.7022 F       1  UNL1       -0.1328
     21 N         139.3896  138.5531  161.1696 N.pl3   1  UNL1       -0.3184
     22 H         138.7463  138.0337  160.6352 H       1  UNL1        0.1482
     23 C         138.7712  139.0239  165.6019 C.3     1  UNL1        0.0248
     24 C         138.2140  140.0445  164.6544 C.3     1  UNL1        0.0040
     25 C         138.4201  139.8876  163.1769 C.3     1  UNL1        0.0196
     26 C         139.1835  138.7101  162.6470 C.3     1  UNL1        0.0704
     27 C         139.7407  137.6895  163.5947 C.3     1  UNL1        0.0196
     28 C         139.5346  137.8464  165.0721 C.3     1  UNL1        0.0040
     29 C         137.4490  138.1799  167.0300 C.3     1  UNL1        0.0293
     30 C         138.5650  139.1808  167.0794 C.3     1  UNL1        0.0884
     31 C         139.6811  140.1818  167.1288 C.3     1  UNL1        0.0293
     32 O         138.3588  139.3378  168.5569 O.3     1  UNL1       -0.3867
     33 H         138.9948  139.9819  168.9055 H       1  UNL1        0.2102
@<TRIPOS>BOND
     1    29    30    1
     2    30    31    1
     3    30    32    1
     4    23    30    1
     5    23    24    1
     6    24    25    1
     7    25    26    1
     8    26    21    1
     9    21     1    1
    10     1     2   ar
    11     2     3   ar
    12     3     4   ar
    13     4     5   ar
    14     5     6   ar
    15     6     7   ar
    16     7    10    1
    17    10    11   ar
    18    11    12   ar
    19    12    13   ar
    20    13    14   ar
    21    14    16    1
    22    16    17    1
    23    17    18    1
    24    17    19    1
    25    17    20    1
    26    14    15   ar
    27     7     8   ar
    28     8     9   ar
    29    26    27    1
    30    27    28    1
    31    28    23    1
    32     9     1   ar
    33     8     4   ar
    34    15    10   ar
    35    32    33    1
    36    21    22    1
@<TRIPOS>MOLECULE
*****
 33 36 0 0 0
SMALL
GASTEIGER

@<TRIPOS>ATOM
      1 C         139.1622  139.1507  163.3269 C.ar    1  UNL1        0.1488
      2 C         138.0859  138.7341  162.3688 C.ar    1  UNL1        0.0390
      3 C         137.7261  139.6206  161.2135 C.ar    1  UNL1        0.0417
      4 C         138.4426  140.9235  161.0163 C.ar    1  UNL1        0.1640
      5 N         138.3058  141.9970  159.9775 N.ar    1  UNL1       -0.2234
      6 C         139.2977  143.0769  160.2936 C.ar    1  UNL1        0.1197
      7 C         140.0474  142.6709  161.5277 C.ar    1  UNL1        0.1037
      8 N         139.5190  141.3400  161.9743 N.ar    1  UNL1       -0.2096
      9 N         139.8788  140.4536  163.1296 N.ar    1  UNL1       -0.1489
     10 C         141.1347  143.4576  162.1976 C.ar    1  UNL1        0.0223
     11 C         140.8110  144.7531  162.8810 C.ar    1  UNL1        0.0017
     12 C         141.8984  145.5398  163.5509 C.ar    1  UNL1        0.0032
     13 C         143.3094  145.0312  163.5375 C.ar    1  UNL1        0.0372
     14 C         143.6331  143.7357  162.8541 C.ar    1  UNL1        0.1469
     15 C         142.5458  142.9490  162.1842 C.ar    1  UNL1        0.0387
     16 O         145.0442  143.2269  162.8406 O.3     1  UNL1       -0.4045
     17 C         145.3919  141.9607  163.5657 C.3     1  UNL1        0.5753
     18 F         145.7396  140.6944  164.2907 F       1  UNL1       -0.1328
     19 F         145.3813  142.7039  164.8686 F       1  UNL1       -0.1328
     20 F         145.4025  141.2176  162.2627 F       1  UNL1       -0.1328
     21 N         139.5221  138.2642  164.4822 N.pl3   1  UNL1       -0.3184
     22 H         139.2442  137.3197  164.4832 H       1  UNL1        0.1482
     23 C         141.8714  139.9221  167.9437 C.3     1  UNL1        0.0248
     24 C         142.5789  139.2069  166.8311 C.3     1  UNL1        0.0040
     25 C         141.7958  138.6543  165.6772 C.3     1  UNL1        0.0196
     26 C         140.3052  138.8168  165.6360 C.3     1  UNL1        0.0704
     27 C         139.5977  139.5320  166.7487 C.3     1  UNL1        0.0196
     28 C         140.3808  140.0846  167.9025 C.3     1  UNL1        0.0040
     29 C         142.4360  139.1995  169.8566 C.3     1  UNL1        0.0293
     30 C         142.6545  140.4747  169.0975 C.3     1  UNL1        0.0884
     31 C         142.8730  141.7498  168.3385 C.3     1  UNL1        0.0293
     32 O         143.4377  141.0273  170.2514 O.3     1  UNL1       -0.3867
     33 H         143.7397  141.9238  170.0374 H       1  UNL1        0.2102
@<TRIPOS>BOND
     1    29    30    1
     2    30    31    1
     3    30    32    1
     4    23    30    1
     5    23    24    1
     6    24    25    1
     7    25    26    1
     8    26    21    1
     9    21     1    1
    10     1     2   ar
    11     2     3   ar
    12     3     4   ar
    13     4     5   ar
    14     5     6   ar
    15     6     7   ar
    16     7    10    1
    17    10    11   ar
    18    11    12   ar
    19    12    13   ar
    20    13    14   ar
    21    14    16    1
    22    16    17    1
    23    17    18    1
    24    17    19    1
    25    17    20    1
    26    14    15   ar
    27     7     8   ar
    28     8     9   ar
    29    26    27    1
    30    27    28    1
    31    28    23    1
    32     9     1   ar
    33     8     4   ar
    34    15    10   ar
    35    32    33    1
    36    21    22    1
@<TRIPOS>MOLECULE
*****
 33 36 0 0 0
SMALL
GASTEIGER

@<TRIPOS>ATOM
      1 C         139.2556  139.8546  168.1725 C.ar    1  UNL1        0.1488
      2 C         139.0379  140.0449  169.6443 C.ar    1  UNL1        0.0390
      3 C         140.0338  140.8192  170.4558 C.ar    1  UNL1        0.0417
      4 C         141.2474  141.4033  169.7954 C.ar    1  UNL1        0.1640
      5 N         142.3934  142.2080  170.3332 N.ar    1  UNL1       -0.2234
      6 C         143.3193  142.5150  169.1938 C.ar    1  UNL1        0.1197
      7 C         142.7455  141.9001  167.9517 C.ar    1  UNL1        0.1037
      8 N         141.4651  141.2130  168.3235 N.ar    1  UNL1       -0.2096
      9 N         140.4692  140.4386  167.5121 N.ar    1  UNL1       -0.1489
     10 C         143.3467  141.9614  166.5788 C.ar    1  UNL1        0.0223
     11 C         144.0395  143.2097  166.1185 C.ar    1  UNL1        0.0017
     12 C         144.6407  143.2711  164.7457 C.ar    1  UNL1        0.0032
     13 C         144.5491  142.0842  163.8330 C.ar    1  UNL1        0.0372
     14 C         143.8564  140.8359  164.2933 C.ar    1  UNL1        0.1469
     15 C         143.2552  140.7746  165.6662 C.ar    1  UNL1        0.0387
     16 O         143.7648  139.6489  163.3807 O.3     1  UNL1       -0.4045
     17 C         143.1560  139.7960  162.0177 C.3     1  UNL1        0.5753
     18 F         142.5472  139.9431  160.6547 F       1  UNL1       -0.1328
     19 F         141.9059  140.3485  162.6358 F       1  UNL1       -0.1328
     20 F         144.4062  139.2435  161.3997 F       1  UNL1       -0.1328
     21 N         138.2596  139.0802  167.3609 N.pl3   1  UNL1       -0.3184
     22 H         137.5199  138.6092  167.8083 H       1  UNL1        0.1482
     23 C         138.6531  138.9101  162.8814 C.3     1  UNL1        0.0248
     24 C         138.9752  137.7013  163.7090 C.3     1  UNL1        0.0040
     25 C         138.8440  137.7580  165.2022 C.3     1  UNL1        0.0196
     26 C         138.3908  139.0235  165.8678 C.3     1  UNL1        0.0704
     27 C         138.0687  140.2324  165.0401 C.3     1  UNL1        0.0196
     28 C         138.1999  140.1757  163.5470 C.3     1  UNL1        0.0040
     29 C         139.9678  137.9423  161.5268 C.3     1  UNL1        0.0293
     30 C         138.7843  138.8534  161.3883 C.3     1  UNL1        0.0884
     31 C         137.6008  139.7645  161.2497 C.3     1  UNL1        0.0293
     32 O         138.9155  138.7967  159.8950 O.3     1  UNL1       -0.3867
     33 H         138.2222  139.3399  159.4887 H       1  UNL1        0.2102
@<TRIPOS>BOND
     1    29    30    1
     2    30    31    1
     3    30    32    1
     4    23    30    1
     5    23    24    1
     6    24    25    1
     7    25    26    1
     8    26    21    1
     9    21     1    1
    10     1     2   ar
    11     2     3   ar
    12     3     4   ar
    13     4     5   ar
    14     5     6   ar
    15     6     7   ar
    16     7    10    1
    17    10    11   ar
    18    11    12   ar
    19    12    13   ar
    20    13    14   ar
    21    14    16    1
    22    16    17    1
    23    17    18    1
    24    17    19    1
    25    17    20    1
    26    14    15   ar
    27     7     8   ar
    28     8     9   ar
    29    26    27    1
    30    27    28    1
    31    28    23    1
    32     9     1   ar
    33     8     4   ar
    34    15    10   ar
    35    32    33    1
    36    21    22    1
@<TRIPOS>MOLECULE
*****
 33 36 0 0 0
SMALL
GASTEIGER

@<TRIPOS>ATOM
      1 C         139.6095  139.1669  164.5057 C.ar    1  UNL1        0.1488
      2 C         139.9719  137.7216  164.3333 C.ar    1  UNL1        0.0390
      3 C         140.6816  137.2693  163.0917 C.ar    1  UNL1        0.0417
      4 C         141.0290  138.2623  162.0225 C.ar    1  UNL1        0.1640
      5 N         141.7215  138.1124  160.7003 N.ar    1  UNL1       -0.2234
      6 C         141.7871  139.4652  160.0555 C.ar    1  UNL1        0.1197
      7 C         141.1351  140.4510  160.9792 C.ar    1  UNL1        0.1037
      8 N         140.6666  139.7076  162.1948 N.ar    1  UNL1       -0.2096
      9 N         139.9569  140.1599  163.4364 N.ar    1  UNL1       -0.1489
     10 C         140.9791  141.9221  160.7309 C.ar    1  UNL1        0.0223
     11 C         141.8309  142.6034  159.7012 C.ar    1  UNL1        0.0017
     12 C         141.6749  144.0744  159.4529 C.ar    1  UNL1        0.0032
     13 C         140.6670  144.8642  160.2341 C.ar    1  UNL1        0.0372
     14 C         139.8152  144.1829  161.2638 C.ar    1  UNL1        0.1469
     15 C         139.9712  142.7118  161.5121 C.ar    1  UNL1        0.0387
     16 O         138.8072  144.9727  162.0451 O.3     1  UNL1       -0.4045
     17 C         138.7028  144.7941  163.5308 C.3     1  UNL1        0.5753
     18 F         138.5983  144.6156  165.0165 F       1  UNL1       -0.1328
     19 F         140.1231  145.2510  163.6855 F       1  UNL1       -0.1328
     20 F         137.2824  144.3373  163.3760 F       1  UNL1       -0.1328
     21 N         138.8997  139.6193  165.7473 N.pl3   1  UNL1       -0.3184
     22 H         137.9687  139.3437  165.9102 H       1  UNL1        0.1482
     23 C         141.0259  142.2360  168.7276 C.3     1  UNL1        0.0248
     24 C         140.5265  140.8828  169.1395 C.3     1  UNL1        0.0040
     25 C         139.8178  140.0105  168.1461 C.3     1  UNL1        0.0196
     26 C         139.6084  140.4915  166.7407 C.3     1  UNL1        0.0704
     27 C         140.1078  141.8447  166.3289 C.3     1  UNL1        0.0196
     28 C         140.8165  142.7169  167.3223 C.3     1  UNL1        0.0040
     29 C         140.4686  143.8807  169.9459 C.3     1  UNL1        0.0293
     30 C         141.7346  143.1082  169.7211 C.3     1  UNL1        0.0884
     31 C         143.0005  142.3357  169.4962 C.3     1  UNL1        0.0293
     32 O         142.4433  143.9804  170.7145 O.3     1  UNL1       -0.3867
     33 H         143.3679  143.6975  170.7916 H       1  UNL1        0.2102
@<TRIPOS>BOND
     1    29    30    1
     2    30    31    1
     3    30    32    1
     4    23    30    1
     5    23    24    1
     6    24    25    1
     7    25    26    1
     8    26    21    1
     9    21     1    1
    10     1     2   ar
    11     2     3   ar
    12     3     4   ar
    13     4     5   ar
    14     5     6   ar
    15     6     7   ar
    16     7    10    1
    17    10    11   ar
    18    11    12   ar
    19    12    13   ar
    20    13    14   ar
    21    14    16    1
    22    16    17    1
    23    17    18    1
    24    17    19    1
    25    17    20    1
    26    14    15   ar
    27     7     8   ar
    28     8     9   ar
    29    26    27    1
    30    27    28    1
    31    28    23    1
    32     9     1   ar
    33     8     4   ar
    34    15    10   ar
    35    32    33    1
    36    21    22    1
@<TRIPOS>MOLECULE
*****
 33 36 0 0 0
SMALL
GASTEIGER

@<TRIPOS>ATOM
      1 C         139.0624  139.5154  164.6520 C.ar    1  UNL1        0.1488
      2 C         138.9033  138.0627  164.3140 C.ar    1  UNL1        0.0390
      3 C         139.1979  137.5793  162.9249 C.ar    1  UNL1        0.0417
      4 C         139.6515  138.5486  161.8739 C.ar    1  UNL1        0.1640
      5 N         140.0132  138.3665  160.4295 N.ar    1  UNL1       -0.2234
      6 C         140.3958  139.7067  159.8750 C.ar    1  UNL1        0.1197
      7 C         140.2705  140.7171  160.9766 C.ar    1  UNL1        0.1037
      8 N         139.8106  140.0013  162.2120 N.ar    1  UNL1       -0.2096
      9 N         139.5160  140.4847  163.6010 N.ar    1  UNL1       -0.1489
     10 C         140.5552  142.1854  160.8628 C.ar    1  UNL1        0.0223
     11 C         139.9039  142.9940  159.7802 C.ar    1  UNL1        0.0017
     12 C         140.1886  144.4623  159.6664 C.ar    1  UNL1        0.0032
     13 C         141.1247  145.1221  160.6351 C.ar    1  UNL1        0.0372
     14 C         141.7760  144.3135  161.7177 C.ar    1  UNL1        0.1469
     15 C         141.4913  142.8452  161.8315 C.ar    1  UNL1        0.0387
     16 O         142.7122  144.9733  162.6865 O.3     1  UNL1       -0.4045
     17 C         143.7172  144.1506  163.4368 C.3     1  UNL1        0.5753
     18 F         144.7224  143.3279  164.1872 F       1  UNL1       -0.1328
     19 F         142.8053  144.1224  164.6274 F       1  UNL1       -0.1328
     20 F         144.6292  144.1788  162.2461 F       1  UNL1       -0.1328
     21 N         138.7678  139.9988  166.0412 N.pl3   1  UNL1       -0.3184
     22 H         137.8775  140.3585  166.2587 H       1  UNL1        0.1482
     23 C         141.9531  139.8051  169.2138 C.3     1  UNL1        0.0248
     24 C         142.3282  139.6870  167.7663 C.3     1  UNL1        0.0040
     25 C         141.2664  139.7516  166.7087 C.3     1  UNL1        0.0196
     26 C         139.8296  139.9342  167.0987 C.3     1  UNL1        0.0704
     27 C         139.4545  140.0523  168.5463 C.3     1  UNL1        0.0196
     28 C         140.5163  139.9878  169.6038 C.3     1  UNL1        0.0040
     29 C         143.2170  141.2226  170.1589 C.3     1  UNL1        0.0293
     30 C         143.0149  139.7405  170.2714 C.3     1  UNL1        0.0884
     31 C         142.8128  138.2585  170.3838 C.3     1  UNL1        0.0293
     32 O         144.0768  139.6760  171.3289 O.3     1  UNL1       -0.3867
     33 H         144.1824  138.7585  171.6255 H       1  UNL1        0.2102
@<TRIPOS>BOND
     1    29    30    1
     2    30    31    1
     3    30    32    1
     4    23    30    1
     5    23    24    1
     6    24    25    1
     7    25    26    1
     8    26    21    1
     9    21     1    1
    10     1     2   ar
    11     2     3   ar
    12     3     4   ar
    13     4     5   ar
    14     5     6   ar
    15     6     7   ar
    16     7    10    1
    17    10    11   ar
    18    11    12   ar
    19    12    13   ar
    20    13    14   ar
    21    14    16    1
    22    16    17    1
    23    17    18    1
    24    17    19    1
    25    17    20    1
    26    14    15   ar
    27     7     8   ar
    28     8     9   ar
    29    26    27    1
    30    27    28    1
    31    28    23    1
    32     9     1   ar
    33     8     4   ar
    34    15    10   ar
    35    32    33    1
    36    21    22    1
@<TRIPOS>MOLECULE
*****
 33 36 0 0 0
SMALL
GASTEIGER

@<TRIPOS>ATOM
      1 C         141.0891  139.1904  163.7613 C.ar    1  UNL1        0.1488
      2 C         142.0462  138.1110  163.3503 C.ar    1  UNL1        0.0390
      3 C         142.9970  138.3447  162.2139 C.ar    1  UNL1        0.0417
      4 C         142.9907  139.6576  161.4886 C.ar    1  UNL1        0.1640
      5 N         143.8052  140.1733  160.3393 N.ar    1  UNL1       -0.2234
      6 C         143.3514  141.5713  160.0400 C.ar    1  UNL1        0.1197
      7 C         142.2566  141.9196  161.0044 C.ar    1  UNL1        0.1037
      8 N         142.0336  140.7369  161.8996 N.ar    1  UNL1       -0.2096
      9 N         141.0828  140.5033  163.0360 N.ar    1  UNL1       -0.1489
     10 C         141.5148  143.2221  161.0631 C.ar    1  UNL1        0.0223
     11 C         141.5617  144.1652  159.8976 C.ar    1  UNL1        0.0017
     12 C         140.8199  145.4676  159.9564 C.ar    1  UNL1        0.0032
     13 C         140.0313  145.8270  161.1806 C.ar    1  UNL1        0.0372
     14 C         139.9844  144.8839  162.3461 C.ar    1  UNL1        0.1469
     15 C         140.7261  143.5815  162.2874 C.ar    1  UNL1        0.0387
     16 O         139.1957  145.2433  163.5705 O.3     1  UNL1       -0.4045
     17 C         138.2808  144.2328  164.1967 C.3     1  UNL1        0.5753
     18 F         137.3660  143.2224  164.8229 F       1  UNL1       -0.1328
     19 F         137.3619  144.3327  163.0153 F       1  UNL1       -0.1328
     20 F         139.1998  144.1330  165.3781 F       1  UNL1       -0.1328
     21 N         140.1382  138.9568  164.8977 N.pl3   1  UNL1       -0.3184
     22 H         139.2559  138.5549  164.7266 H       1  UNL1        0.1482
     23 C         141.3187  140.0926  169.0889 C.3     1  UNL1        0.0248
     24 C         139.8787  140.1516  168.6733 C.3     1  UNL1        0.0040
     25 C         139.4851  139.7730  167.2762 C.3     1  UNL1        0.0196
     26 C         140.5317  139.3354  166.2947 C.3     1  UNL1        0.0704
     27 C         141.9718  139.2764  166.7104 C.3     1  UNL1        0.0196
     28 C         142.3653  139.6551  168.1075 C.3     1  UNL1        0.0040
     29 C         140.3363  140.1195  170.9688 C.3     1  UNL1        0.0293
     30 C         141.7122  140.4713  170.4859 C.3     1  UNL1        0.0884
     31 C         143.0880  140.8231  170.0031 C.3     1  UNL1        0.0293
     32 O         142.1056  140.8499  171.8831 O.3     1  UNL1       -0.3867
     33 H         143.0293  141.1460  171.8899 H       1  UNL1        0.2102
@<TRIPOS>BOND
     1    29    30    1
     2    30    31    1
     3    30    32    1
     4    23    30    1
     5    23    24    1
     6    24    25    1
     7    25    26    1
     8    26    21    1
     9    21     1    1
    10     1     2   ar
    11     2     3   ar
    12     3     4   ar
    13     4     5   ar
    14     5     6   ar
    15     6     7   ar
    16     7    10    1
    17    10    11   ar
    18    11    12   ar
    19    12    13   ar
    20    13    14   ar
    21    14    16    1
    22    16    17    1
    23    17    18    1
    24    17    19    1
    25    17    20    1
    26    14    15   ar
    27     7     8   ar
    28     8     9   ar
    29    26    27    1
    30    27    28    1
    31    28    23    1
    32     9     1   ar
    33     8     4   ar
    34    15    10   ar
    35    32    33    1
    36    21    22    1
@<TRIPOS>MOLECULE
*****
 33 36 0 0 0
SMALL
GASTEIGER

@<TRIPOS>ATOM
      1 C         143.4857  142.3449  164.5304 C.ar    1  UNL1        0.1488
      2 C         144.9100  142.3729  164.0609 C.ar    1  UNL1        0.0390
      3 C         145.3082  141.6174  162.8278 C.ar    1  UNL1        0.0417
      4 C         144.2821  140.8340  162.0641 C.ar    1  UNL1        0.1640
      5 N         144.3775  139.9976  160.8225 N.ar    1  UNL1       -0.2234
      6 C         143.0121  139.4527  160.5247 C.ar    1  UNL1        0.1197
      7 C         142.0728  139.9523  161.5822 C.ar    1  UNL1        0.1037
      8 N         142.8577  140.8060  162.5336 N.ar    1  UNL1       -0.2096
      9 N         142.4595  141.5614  163.7667 N.ar    1  UNL1       -0.1489
     10 C         140.6062  139.6511  161.6724 C.ar    1  UNL1        0.0223
     11 C         140.1058  138.2664  161.3856 C.ar    1  UNL1        0.0017
     12 C         138.6391  137.9653  161.4758 C.ar    1  UNL1        0.0032
     13 C         137.6728  139.0487  161.8529 C.ar    1  UNL1        0.0372
     14 C         138.1731  140.4334  162.1397 C.ar    1  UNL1        0.1469
     15 C         139.6398  140.7346  162.0494 C.ar    1  UNL1        0.0387
     16 O         137.2067  141.5170  162.5168 O.3     1  UNL1       -0.4045
     17 C         137.5302  142.4511  163.6450 C.3     1  UNL1        0.5753
     18 F         137.8536  143.3852  164.7732 F       1  UNL1       -0.1328
     19 F         137.4266  143.6182  162.7083 F       1  UNL1       -0.1328
     20 F         137.6337  141.2840  164.5816 F       1  UNL1       -0.1328
     21 N         143.0874  143.1004  165.7636 N.pl3   1  UNL1       -0.3184
     22 H         143.2763  144.0641  165.8329 H       1  UNL1        0.1482
     23 C         141.0293  140.9618  169.1460 C.3     1  UNL1        0.0248
     24 C         140.2210  141.7248  168.1388 C.3     1  UNL1        0.0040
     25 C         140.9070  142.4377  167.0112 C.3     1  UNL1        0.0196
     26 C         142.4014  142.3876  166.8910 C.3     1  UNL1        0.0704
     27 C         143.2097  141.6246  167.8983 C.3     1  UNL1        0.0196
     28 C         142.5237  140.9118  169.0258 C.3     1  UNL1        0.0040
     29 C         139.0684  140.2267  169.4835 C.3     1  UNL1        0.0293
     30 C         140.3433  140.2490  170.2734 C.3     1  UNL1        0.0884
     31 C         141.6182  140.2714  171.0633 C.3     1  UNL1        0.0293
     32 O         139.6572  139.5361  171.4009 O.3     1  UNL1       -0.3867
     33 H         140.2866  139.3961  172.1256 H       1  UNL1        0.2102
@<TRIPOS>BOND
     1    29    30    1
     2    30    31    1
     3    30    32    1
     4    23    30    1
     5    23    24    1
     6    24    25    1
     7    25    26    1
     8    26    21    1
     9    21     1    1
    10     1     2   ar
    11     2     3   ar
    12     3     4   ar
    13     4     5   ar
    14     5     6   ar
    15     6     7   ar
    16     7    10    1
    17    10    11   ar
    18    11    12   ar
    19    12    13   ar
    20    13    14   ar
    21    14    16    1
    22    16    17    1
    23    17    18    1
    24    17    19    1
    25    17    20    1
    26    14    15   ar
    27     7     8   ar
    28     8     9   ar
    29    26    27    1
    30    27    28    1
    31    28    23    1
    32     9     1   ar
    33     8     4   ar
    34    15    10   ar
    35    32    33    1
    36    21    22    1
