@<TRIPOS>MOLECULE
*****
 33 37 0 0 0
SMALL
GASTEIGER

@<TRIPOS>ATOM
      1 C         143.6071  143.0171  163.6940 C.ar    1  UNL1        0.0687
      2 C         145.0604  142.9362  163.3318 C.ar    1  UNL1        0.0163
      3 C         145.8340  141.6817  163.6106 C.ar    1  UNL1        0.0029
      4 C         145.1543  140.5082  164.2515 C.ar    1  UNL1        0.0188
      5 C         143.7010  140.5891  164.6137 C.ar    1  UNL1        0.0801
      6 C         142.9274  141.8436  164.3349 C.ar    1  UNL1        0.1120
      7 N         141.5170  141.6313  164.7996 N.ar    1  UNL1       -0.2256
      8 C         141.4190  140.2457  165.3655 C.ar    1  UNL1        0.1439
      9 N         142.7688  139.6016  165.2506 N.ar    1  UNL1       -0.3094
     10 C         143.1240  138.2135  165.6947 C.3     1  UNL1        0.1319
     11 C         140.1874  139.6148  165.9447 C.ar    1  UNL1        0.0343
     12 C         139.4961  138.5055  165.2088 C.ar    1  UNL1        0.0053
     13 C         138.2646  137.8747  165.7880 C.ar    1  UNL1        0.0297
     14 C         137.7245  138.3532  167.1030 C.ar    1  UNL1        0.1401
     15 F         136.4929  137.7223  167.6822 F       1  UNL1       -0.2042
     16 C         138.4158  139.4625  167.8389 C.ar    1  UNL1        0.0297
     17 C         139.6473  140.0933  167.2597 C.ar    1  UNL1        0.0053
     18 N         142.8334  144.2716  163.4152 N.pl3   1  UNL1       -0.2966
     19 H         142.7590  144.9681  164.1071 H       1  UNL1        0.1537
     20 C         142.2058  144.2103  159.4970 C.ar    1  UNL1        0.2428
     21 N         142.8662  144.0171  160.8299 N.ar    1  UNL1       -0.1954
     22 C         142.1729  144.4649  162.0824 C.ar    1  UNL1        0.1354
     23 C         140.8192  145.1061  162.0020 C.ar    1  UNL1        0.0361
     24 C         140.1588  145.2994  160.6692 C.ar    1  UNL1        0.0252
     25 C         140.8521  144.8515  159.4167 C.ar    1  UNL1        0.1190
     26 N         140.1917  145.0448  158.0838 N.ar    1  UNL1       -0.2826
     27 C         139.5479  143.9730  157.2551 C.ar    1  UNL1        0.1826
     28 N         139.0175  144.6095  156.0047 N.ar    1  UNL1       -0.2280
     29 C         139.3334  146.0748  156.0607 C.ar    1  UNL1        0.0786
     30 C         138.9849  147.0925  155.0153 C.3     1  UNL1        0.0538
     31 C         140.0591  146.3438  157.3456 C.ar    1  UNL1        0.0963
     32 C         143.9167  142.6620  158.3031 C.3     1  UNL1        0.2543
     33 O         142.8991  143.7625  158.2445 O.3     1  UNL1       -0.4551
@<TRIPOS>BOND
     1    32    33    1
     2    33    20    1
     3    20    21   ar
     4    21    22   ar
     5    22    18    1
     6    18     1    1
     7     1     2   ar
     8     2     3   ar
     9     3     4   ar
    10     4     5   ar
    11     5     6   ar
    12     6     7   ar
    13     7     8   ar
    14     8    11    1
    15    11    12   ar
    16    12    13   ar
    17    13    14   ar
    18    14    15    1
    19    14    16   ar
    20    16    17   ar
    21     8     9   ar
    22     9    10    1
    23    22    23   ar
    24    23    24   ar
    25    24    25   ar
    26    25    26    1
    27    26    27   ar
    28    27    28   ar
    29    28    29   ar
    30    29    30    1
    31    29    31   ar
    32    25    20   ar
    33    31    26   ar
    34     6     1   ar
    35    17    11   ar
    36     9     5   ar
    37    18    19    1
@<TRIPOS>MOLECULE
*****
 33 37 0 0 0
SMALL
GASTEIGER

@<TRIPOS>ATOM
      1 C         143.4729  142.6450  162.9590 C.ar    1  UNL1        0.0687
      2 C         144.9590  142.6813  162.7587 C.ar    1  UNL1        0.0163
      3 C         145.8306  141.6575  163.4234 C.ar    1  UNL1        0.0029
      4 C         145.2162  140.5973  164.2885 C.ar    1  UNL1        0.0188
      5 C         143.7301  140.5609  164.4889 C.ar    1  UNL1        0.0801
      6 C         142.8585  141.5848  163.8241 C.ar    1  UNL1        0.1120
      7 N         141.4356  141.2991  164.2037 N.ar    1  UNL1       -0.2256
      8 C         141.4280  140.0986  165.1031 C.ar    1  UNL1        0.1439
      9 N         142.8461  139.6424  165.2793 N.ar    1  UNL1       -0.3094
     10 C         143.3003  138.4731  166.1016 C.3     1  UNL1        0.1319
     11 C         140.2152  139.4655  165.7183 C.ar    1  UNL1        0.0343
     12 C         139.5832  138.2695  165.0701 C.ar    1  UNL1        0.0053
     13 C         138.3705  137.6364  165.6853 C.ar    1  UNL1        0.0297
     14 C         137.7898  138.1993  166.9486 C.ar    1  UNL1        0.1401
     15 F         136.5770  137.5662  167.5638 F       1  UNL1       -0.2042
     16 C         138.4218  139.3953  167.5968 C.ar    1  UNL1        0.0297
     17 C         139.6345  140.0284  166.9816 C.ar    1  UNL1        0.0053
     18 N         142.6012  143.6688  162.2942 N.pl3   1  UNL1       -0.2966
     19 H         142.7110  144.6232  162.5094 H       1  UNL1        0.1537
     20 C         139.1145  142.5569  160.7591 C.ar    1  UNL1        0.2428
     21 N         140.1535  142.9873  161.7517 N.ar    1  UNL1       -0.1954
     22 C         141.5622  143.2385  161.3016 C.ar    1  UNL1        0.1354
     23 C         141.9318  143.0594  159.8589 C.ar    1  UNL1        0.0361
     24 C         140.8928  142.6291  158.8663 C.ar    1  UNL1        0.0252
     25 C         139.4841  142.3778  159.3165 C.ar    1  UNL1        0.1190
     26 N         138.4451  141.9475  158.3239 N.ar    1  UNL1       -0.2826
     27 C         137.7960  140.5969  158.2565 C.ar    1  UNL1        0.1826
     28 N         136.8224  140.6069  157.1153 N.ar    1  UNL1       -0.2280
     29 C         136.8698  141.9637  156.4775 C.ar    1  UNL1        0.0786
     30 C         136.0571  142.4130  155.2995 C.3     1  UNL1        0.0538
     31 C         137.8727  142.7922  157.2244 C.ar    1  UNL1        0.0963
     32 C         137.4468  141.5088  162.4533 C.3     1  UNL1        0.2543
     33 O         137.7058  142.3057  161.2092 O.3     1  UNL1       -0.4551
@<TRIPOS>BOND
     1    32    33    1
     2    33    20    1
     3    20    21   ar
     4    21    22   ar
     5    22    18    1
     6    18     1    1
     7     1     2   ar
     8     2     3   ar
     9     3     4   ar
    10     4     5   ar
    11     5     6   ar
    12     6     7   ar
    13     7     8   ar
    14     8    11    1
    15    11    12   ar
    16    12    13   ar
    17    13    14   ar
    18    14    15    1
    19    14    16   ar
    20    16    17   ar
    21     8     9   ar
    22     9    10    1
    23    22    23   ar
    24    23    24   ar
    25    24    25   ar
    26    25    26    1
    27    26    27   ar
    28    27    28   ar
    29    28    29   ar
    30    29    30    1
    31    29    31   ar
    32    25    20   ar
    33    31    26   ar
    34     6     1   ar
    35    17    11   ar
    36     9     5   ar
    37    18    19    1
@<TRIPOS>MOLECULE
*****
 33 37 0 0 0
SMALL
GASTEIGER

@<TRIPOS>ATOM
      1 C         138.9010  139.6270  168.2415 C.ar    1  UNL1        0.0687
      2 C         138.3369  139.8926  169.6057 C.ar    1  UNL1        0.0163
      3 C         139.0806  140.7721  170.5666 C.ar    1  UNL1        0.0029
      4 C         140.3885  141.3859  170.1632 C.ar    1  UNL1        0.0188
      5 C         140.9526  141.1202  168.7990 C.ar    1  UNL1        0.0801
      6 C         140.2089  140.2408  167.8381 C.ar    1  UNL1        0.1120
      7 N         141.0069  140.1601  166.5705 N.ar    1  UNL1       -0.2256
      8 C         142.2439  140.9897  166.7481 C.ar    1  UNL1        0.1439
      9 N         142.2104  141.5831  168.1253 N.ar    1  UNL1       -0.3094
     10 C         143.2517  142.4816  168.7239 C.3     1  UNL1        0.1319
     11 C         143.3248  141.1907  165.7275 C.ar    1  UNL1        0.0343
     12 C         143.9980  140.0040  165.1044 C.ar    1  UNL1        0.0053
     13 C         145.0788  140.2050  164.0839 C.ar    1  UNL1        0.0297
     14 C         145.4863  141.5929  163.6866 C.ar    1  UNL1        0.1401
     15 F         146.5672  141.7939  162.6660 F       1  UNL1       -0.2042
     16 C         144.8131  142.7796  164.3097 C.ar    1  UNL1        0.0297
     17 C         143.7323  142.5786  165.3302 C.ar    1  UNL1        0.0053
     18 N         138.1572  138.7475  167.2805 N.pl3   1  UNL1       -0.2966
     19 H         137.5973  138.0117  167.6188 H       1  UNL1        0.1537
     20 C         137.9562  140.5500  163.7506 C.ar    1  UNL1        0.2428
     21 N         137.8469  140.3084  165.2269 N.ar    1  UNL1       -0.1954
     22 C         138.2665  138.9891  165.8041 C.ar    1  UNL1        0.1354
     23 C         138.7954  137.9112  164.9049 C.ar    1  UNL1        0.0361
     24 C         138.9047  138.1527  163.4285 C.ar    1  UNL1        0.0252
     25 C         138.4851  139.4722  162.8514 C.ar    1  UNL1        0.1190
     26 N         138.5944  139.7138  161.3750 N.ar    1  UNL1       -0.2826
     27 C         137.4532  139.7624  160.4026 C.ar    1  UNL1        0.1826
     28 N         138.0176  140.0278  159.0384 N.ar    1  UNL1       -0.2280
     29 C         139.5075  140.1433  159.1676 C.ar    1  UNL1        0.0786
     30 C         140.4718  140.4066  158.0492 C.3     1  UNL1        0.0538
     31 C         139.8640  139.9492  160.6117 C.ar    1  UNL1        0.0963
     32 C         138.5577  142.9417  162.9331 C.3     1  UNL1        0.2543
     33 O         137.5367  141.8695  163.1734 O.3     1  UNL1       -0.4551
@<TRIPOS>BOND
     1    32    33    1
     2    33    20    1
     3    20    21   ar
     4    21    22   ar
     5    22    18    1
     6    18     1    1
     7     1     2   ar
     8     2     3   ar
     9     3     4   ar
    10     4     5   ar
    11     5     6   ar
    12     6     7   ar
    13     7     8   ar
    14     8    11    1
    15    11    12   ar
    16    12    13   ar
    17    13    14   ar
    18    14    15    1
    19    14    16   ar
    20    16    17   ar
    21     8     9   ar
    22     9    10    1
    23    22    23   ar
    24    23    24   ar
    25    24    25   ar
    26    25    26    1
    27    26    27   ar
    28    27    28   ar
    29    28    29   ar
    30    29    30    1
    31    29    31   ar
    32    25    20   ar
    33    31    26   ar
    34     6     1   ar
    35    17    11   ar
    36     9     5   ar
    37    18    19    1
@<TRIPOS>MOLECULE
*****
 33 37 0 0 0
SMALL
GASTEIGER

@<TRIPOS>ATOM
      1 C         144.0043  142.4306  162.8780 C.ar    1  UNL1        0.0687
      2 C         144.4892  143.8165  162.5715 C.ar    1  UNL1        0.0163
      3 C         143.7475  145.0058  163.1056 C.ar    1  UNL1        0.0029
      4 C         142.5209  144.8092  163.9463 C.ar    1  UNL1        0.0188
      5 C         142.0360  143.4233  164.2528 C.ar    1  UNL1        0.0801
      6 C         142.7777  142.2340  163.7187 C.ar    1  UNL1        0.1120
      7 N         142.0671  140.9974  164.1835 N.ar    1  UNL1       -0.2256
      8 C         140.8862  141.4226  165.0050 C.ar    1  UNL1        0.1439
      9 N         140.8670  142.9218  165.0478 N.ar    1  UNL1       -0.3094
     10 C         139.8563  143.7706  165.7605 C.3     1  UNL1        0.1319
     11 C         139.8980  140.5088  165.6673 C.ar    1  UNL1        0.0343
     12 C         139.0393  139.6032  164.8353 C.ar    1  UNL1        0.0053
     13 C         138.0511  138.6895  165.4977 C.ar    1  UNL1        0.0297
     14 C         137.9217  138.6816  166.9921 C.ar    1  UNL1        0.1401
     15 F         136.9335  137.7679  167.6544 F       1  UNL1       -0.2042
     16 C         138.7804  139.5873  167.8241 C.ar    1  UNL1        0.0297
     17 C         139.7685  140.5009  167.1617 C.ar    1  UNL1        0.0053
     18 N         144.7460  141.2412  162.3438 N.pl3   1  UNL1       -0.2966
     19 H         145.6395  141.0206  162.6933 H       1  UNL1        0.1537
     20 C         143.4393  140.0321  158.7969 C.ar    1  UNL1        0.2428
     21 N         144.0590  140.8854  159.8636 N.ar    1  UNL1       -0.1954
     22 C         144.1262  140.3879  161.2771 C.ar    1  UNL1        0.1354
     23 C         143.5736  139.0372  161.6239 C.ar    1  UNL1        0.0361
     24 C         142.9539  138.1839  160.5572 C.ar    1  UNL1        0.0252
     25 C         142.8867  138.6814  159.1437 C.ar    1  UNL1        0.1190
     26 N         142.2669  137.8282  158.0770 N.ar    1  UNL1       -0.2826
     27 C         140.9124  138.0279  157.4644 C.ar    1  UNL1        0.1826
     28 N         140.7012  136.9486  156.4443 N.ar    1  UNL1       -0.2280
     29 C         141.9252  136.0817  156.4266 C.ar    1  UNL1        0.0786
     30 C         142.1434  134.8819  155.5531 C.3     1  UNL1        0.0538
     31 C         142.8929  136.6254  157.4356 C.ar    1  UNL1        0.0963
     32 C         144.6361  140.7813  156.6159 C.3     1  UNL1        0.2543
     33 O         143.3721  140.5296  157.3833 O.3     1  UNL1       -0.4551
@<TRIPOS>BOND
     1    32    33    1
     2    33    20    1
     3    20    21   ar
     4    21    22   ar
     5    22    18    1
     6    18     1    1
     7     1     2   ar
     8     2     3   ar
     9     3     4   ar
    10     4     5   ar
    11     5     6   ar
    12     6     7   ar
    13     7     8   ar
    14     8    11    1
    15    11    12   ar
    16    12    13   ar
    17    13    14   ar
    18    14    15    1
    19    14    16   ar
    20    16    17   ar
    21     8     9   ar
    22     9    10    1
    23    22    23   ar
    24    23    24   ar
    25    24    25   ar
    26    25    26    1
    27    26    27   ar
    28    27    28   ar
    29    28    29   ar
    30    29    30    1
    31    29    31   ar
    32    25    20   ar
    33    31    26   ar
    34     6     1   ar
    35    17    11   ar
    36     9     5   ar
    37    18    19    1
@<TRIPOS>MOLECULE
*****
 33 37 0 0 0
SMALL
GASTEIGER

@<TRIPOS>ATOM
      1 C         142.8636  139.1741  167.9140 C.ar    1  UNL1        0.0687
      2 C         142.7009  138.7179  169.3336 C.ar    1  UNL1        0.0163
      3 C         141.8952  139.5379  170.2971 C.ar    1  UNL1        0.0029
      4 C         141.2522  140.8141  169.8409 C.ar    1  UNL1        0.0188
      5 C         141.4150  141.2702  168.4213 C.ar    1  UNL1        0.0801
      6 C         142.2207  140.4502  167.4578 C.ar    1  UNL1        0.1120
      7 N         142.2060  141.1480  166.1300 N.ar    1  UNL1       -0.2256
      8 C         141.3912  142.3992  166.2729 C.ar    1  UNL1        0.1439
      9 N         140.9023  142.4747  167.6890 N.ar    1  UNL1       -0.3094
     10 C         140.0503  143.5637  168.2708 C.3     1  UNL1        0.1319
     11 C         141.1139  143.3994  165.1899 C.ar    1  UNL1        0.0343
     12 C         142.2455  143.9663  164.3850 C.ar    1  UNL1        0.0053
     13 C         141.9681  144.9664  163.3020 C.ar    1  UNL1        0.0297
     14 C         140.5592  145.3996  163.0240 C.ar    1  UNL1        0.1401
     15 F         140.2819  146.3998  161.9410 F       1  UNL1       -0.2042
     16 C         139.4276  144.8326  163.8290 C.ar    1  UNL1        0.0297
     17 C         139.7049  143.8325  164.9119 C.ar    1  UNL1        0.0053
     18 N         143.6694  138.3541  166.9504 N.pl3   1  UNL1       -0.2966
     19 H         144.4028  137.7862  167.2805 H       1  UNL1        0.1537
     20 C         141.8045  137.7852  163.4937 C.ar    1  UNL1        0.2428
     21 N         142.1162  137.7400  164.9603 N.ar    1  UNL1       -0.1954
     22 C         143.3577  138.3992  165.4838 C.ar    1  UNL1        0.1354
     23 C         144.2876  139.1036  164.5408 C.ar    1  UNL1        0.0361
     24 C         143.9759  139.1487  163.0742 C.ar    1  UNL1        0.0252
     25 C         142.7343  138.4895  162.5507 C.ar    1  UNL1        0.1190
     26 N         142.4226  138.5346  161.0841 N.ar    1  UNL1       -0.2826
     27 C         141.5111  139.5142  160.4062 C.ar    1  UNL1        0.1826
     28 N         141.4929  139.1931  158.9411 N.ar    1  UNL1       -0.2280
     29 C         142.3931  138.0151  158.7135 C.ar    1  UNL1        0.0786
     30 C         142.6701  137.3592  157.3932 C.3     1  UNL1        0.0538
     31 C         142.9677  137.6081  160.0379 C.ar    1  UNL1        0.0963
     32 C         139.2149  137.6911  163.3067 C.3     1  UNL1        0.2543
     33 O         140.5629  137.1260  162.9702 O.3     1  UNL1       -0.4551
@<TRIPOS>BOND
     1    32    33    1
     2    33    20    1
     3    20    21   ar
     4    21    22   ar
     5    22    18    1
     6    18     1    1
     7     1     2   ar
     8     2     3   ar
     9     3     4   ar
    10     4     5   ar
    11     5     6   ar
    12     6     7   ar
    13     7     8   ar
    14     8    11    1
    15    11    12   ar
    16    12    13   ar
    17    13    14   ar
    18    14    15    1
    19    14    16   ar
    20    16    17   ar
    21     8     9   ar
    22     9    10    1
    23    22    23   ar
    24    23    24   ar
    25    24    25   ar
    26    25    26    1
    27    26    27   ar
    28    27    28   ar
    29    28    29   ar
    30    29    30    1
    31    29    31   ar
    32    25    20   ar
    33    31    26   ar
    34     6     1   ar
    35    17    11   ar
    36     9     5   ar
    37    18    19    1
@<TRIPOS>MOLECULE
*****
 33 37 0 0 0
SMALL
GASTEIGER

@<TRIPOS>ATOM
      1 C         138.3875  140.7099  158.8173 C.ar    1  UNL1        0.0687
      2 C         137.6444  140.8640  157.5234 C.ar    1  UNL1        0.0163
      3 C         137.7368  142.1481  156.7538 C.ar    1  UNL1        0.0029
      4 C         138.5724  143.2782  157.2780 C.ar    1  UNL1        0.0188
      5 C         139.3155  143.1242  158.5718 C.ar    1  UNL1        0.0801
      6 C         139.2230  141.8401  159.3414 C.ar    1  UNL1        0.1120
      7 N         140.0613  141.9791  160.5776 N.ar    1  UNL1       -0.2256
      8 C         140.6718  143.3493  160.5719 C.ar    1  UNL1        0.1439
      9 N         140.2108  144.0569  159.3322 N.ar    1  UNL1       -0.3094
     10 C         140.5803  145.4524  158.9245 C.3     1  UNL1        0.1319
     11 C         141.5832  143.9129  161.6215 C.ar    1  UNL1        0.0343
     12 C         141.0264  144.7806  162.7110 C.ar    1  UNL1        0.0053
     13 C         141.9378  145.3441  163.7605 C.ar    1  UNL1        0.0297
     14 C         143.4061  145.0399  163.7207 C.ar    1  UNL1        0.1401
     15 F         144.3176  145.6035  164.7703 F       1  UNL1       -0.2042
     16 C         143.9630  144.1722  162.6313 C.ar    1  UNL1        0.0297
     17 C         143.0515  143.6086  161.5817 C.ar    1  UNL1        0.0053
     18 N         138.2951  139.4258  159.5870 N.pl3   1  UNL1       -0.2966
     19 H         138.1735  138.5734  159.1096 H       1  UNL1        0.1537
     20 C         139.3789  138.4821  163.2863 C.ar    1  UNL1        0.2428
     21 N         139.2859  138.4675  161.7893 N.ar    1  UNL1       -0.1954
     22 C         138.3881  139.4404  161.0840 C.ar    1  UNL1        0.1354
     23 C         137.5832  140.4279  161.8759 C.ar    1  UNL1        0.0361
     24 C         137.6761  140.4425  163.3729 C.ar    1  UNL1        0.0252
     25 C         138.5740  139.4695  164.0781 C.ar    1  UNL1        0.1190
     26 N         138.6670  139.4841  165.5752 N.ar    1  UNL1       -0.2826
     27 C         137.8306  138.6714  166.5185 C.ar    1  UNL1        0.1826
     28 N         138.2593  138.9990  167.9181 N.ar    1  UNL1       -0.2280
     29 C         139.3608  140.0142  167.8398 C.ar    1  UNL1        0.0786
     30 C         140.0835  140.6227  169.0049 C.3     1  UNL1        0.0538
     31 C         139.6127  140.3140  166.3918 C.ar    1  UNL1        0.0963
     32 C         141.6960  137.8851  164.2985 C.3     1  UNL1        0.2543
     33 O         140.2768  137.5091  163.9915 O.3     1  UNL1       -0.4551
@<TRIPOS>BOND
     1    32    33    1
     2    33    20    1
     3    20    21   ar
     4    21    22   ar
     5    22    18    1
     6    18     1    1
     7     1     2   ar
     8     2     3   ar
     9     3     4   ar
    10     4     5   ar
    11     5     6   ar
    12     6     7   ar
    13     7     8   ar
    14     8    11    1
    15    11    12   ar
    16    12    13   ar
    17    13    14   ar
    18    14    15    1
    19    14    16   ar
    20    16    17   ar
    21     8     9   ar
    22     9    10    1
    23    22    23   ar
    24    23    24   ar
    25    24    25   ar
    26    25    26    1
    27    26    27   ar
    28    27    28   ar
    29    28    29   ar
    30    29    30    1
    31    29    31   ar
    32    25    20   ar
    33    31    26   ar
    34     6     1   ar
    35    17    11   ar
    36     9     5   ar
    37    18    19    1
@<TRIPOS>MOLECULE
*****
 33 37 0 0 0
SMALL
GASTEIGER

@<TRIPOS>ATOM
      1 C         143.6134  140.7944  158.8625 C.ar    1  UNL1        0.0687
      2 C         144.2865  141.1057  157.5587 C.ar    1  UNL1        0.0163
      3 C         143.9991  142.3996  156.8564 C.ar    1  UNL1        0.0029
      4 C         143.0385  143.3821  157.4579 C.ar    1  UNL1        0.0188
      5 C         142.3653  143.0709  158.7617 C.ar    1  UNL1        0.0801
      6 C         142.6528  141.7770  159.4640 C.ar    1  UNL1        0.1120
      7 N         141.8445  141.7457  160.7273 N.ar    1  UNL1       -0.2256
      8 C         141.0575  143.0203  160.8057 C.ar    1  UNL1        0.1439
      9 N         141.3794  143.8392  159.5909 N.ar    1  UNL1       -0.3094
     10 C         140.8146  145.1895  159.2628 C.3     1  UNL1        0.1319
     11 C         140.1143  143.4079  161.9057 C.ar    1  UNL1        0.0343
     12 C         140.6127  144.2038  163.0754 C.ar    1  UNL1        0.0053
     13 C         139.6694  144.5913  164.1754 C.ar    1  UNL1        0.0297
     14 C         138.2277  144.1830  164.1057 C.ar    1  UNL1        0.1401
     15 F         137.2844  144.5706  165.2058 F       1  UNL1       -0.2042
     16 C         137.7293  143.3871  162.9361 C.ar    1  UNL1        0.0297
     17 C         138.6726  142.9995  161.8361 C.ar    1  UNL1        0.0053
     18 N         143.9008  139.5005  159.5649 N.pl3   1  UNL1       -0.2966
     19 H         144.1849  138.7123  159.0479 H       1  UNL1        0.1537
     20 C         144.4327  140.1981  163.4353 C.ar    1  UNL1        0.2428
     21 N         144.5781  140.2910  161.9453 N.ar    1  UNL1       -0.1954
     22 C         143.7554  139.4076  161.0549 C.ar    1  UNL1        0.1354
     23 C         142.7873  138.4312  161.6546 C.ar    1  UNL1        0.0361
     24 C         142.6419  138.3383  163.1446 C.ar    1  UNL1        0.0252
     25 C         143.4647  139.2218  164.0350 C.ar    1  UNL1        0.1190
     26 N         143.3193  139.1289  165.5250 N.ar    1  UNL1       -0.2826
     27 C         143.8758  138.0445  166.3993 C.ar    1  UNL1        0.1826
     28 N         143.4923  138.3494  167.8170 N.ar    1  UNL1       -0.2280
     29 C         142.6988  139.6224  167.8190 C.ar    1  UNL1        0.0786
     30 C         142.1148  140.2954  169.0256 C.3     1  UNL1        0.0538
     31 C         142.5919  140.1041  166.4025 C.ar    1  UNL1        0.0963
     32 C         144.8741  142.5199  164.5144 C.3     1  UNL1        0.2543
     33 O         145.2555  141.0815  164.3257 O.3     1  UNL1       -0.4551
@<TRIPOS>BOND
     1    32    33    1
     2    33    20    1
     3    20    21   ar
     4    21    22   ar
     5    22    18    1
     6    18     1    1
     7     1     2   ar
     8     2     3   ar
     9     3     4   ar
    10     4     5   ar
    11     5     6   ar
    12     6     7   ar
    13     7     8   ar
    14     8    11    1
    15    11    12   ar
    16    12    13   ar
    17    13    14   ar
    18    14    15    1
    19    14    16   ar
    20    16    17   ar
    21     8     9   ar
    22     9    10    1
    23    22    23   ar
    24    23    24   ar
    25    24    25   ar
    26    25    26    1
    27    26    27   ar
    28    27    28   ar
    29    28    29   ar
    30    29    30    1
    31    29    31   ar
    32    25    20   ar
    33    31    26   ar
    34     6     1   ar
    35    17    11   ar
    36     9     5   ar
    37    18    19    1
@<TRIPOS>MOLECULE
*****
 33 37 0 0 0
SMALL
GASTEIGER

@<TRIPOS>ATOM
      1 C         143.3626  142.6952  162.8040 C.ar    1  UNL1        0.0687
      2 C         144.8469  142.7767  162.6039 C.ar    1  UNL1        0.0163
      3 C         145.7500  141.7864  163.2774 C.ar    1  UNL1        0.0029
      4 C         145.1687  140.7146  164.1512 C.ar    1  UNL1        0.0188
      5 C         143.6844  140.6331  164.3513 C.ar    1  UNL1        0.0801
      6 C         142.7813  141.6234  163.6777 C.ar    1  UNL1        0.1120
      7 N         141.3680  141.2962  164.0592 N.ar    1  UNL1       -0.2256
      8 C         141.3976  140.1036  164.9685 C.ar    1  UNL1        0.1439
      9 N         142.8292  139.6938  165.1491 N.ar    1  UNL1       -0.3094
     10 C         143.3196  138.5463  165.9813 C.3     1  UNL1        0.1319
     11 C         140.2050  139.4377  165.5885 C.ar    1  UNL1        0.0343
     12 C         139.5827  140.0145  166.8255 C.ar    1  UNL1        0.0053
     13 C         138.3901  139.3486  167.4454 C.ar    1  UNL1        0.0297
     14 C         137.8199  138.1059  166.8284 C.ar    1  UNL1        0.1401
     15 F         136.6273  137.4400  167.4484 F       1  UNL1       -0.2042
     16 C         138.4423  137.5292  165.5915 C.ar    1  UNL1        0.0297
     17 C         139.6348  138.1951  164.9716 C.ar    1  UNL1        0.0053
     18 N         142.4595  143.6855  162.1304 N.pl3   1  UNL1       -0.2966
     19 H         142.5156  144.6405  162.3629 H       1  UNL1        0.1537
     20 C         140.9636  142.2229  158.7580 C.ar    1  UNL1        0.2428
     21 N         141.9523  142.6877  159.7858 N.ar    1  UNL1       -0.1954
     22 C         141.4708  143.2207  161.1026 C.ar    1  UNL1        0.1354
     23 C         140.0004  143.2890  161.3916 C.ar    1  UNL1        0.0361
     24 C         139.0117  142.8242  160.3637 C.ar    1  UNL1        0.0252
     25 C         139.4933  142.2912  159.0469 C.ar    1  UNL1        0.1190
     26 N         138.5046  141.8264  158.0191 N.ar    1  UNL1       -0.2826
     27 C         138.1565  140.4000  157.7123 C.ar    1  UNL1        0.1826
     28 N         137.1272  140.3984  156.6212 N.ar    1  UNL1       -0.2280
     29 C         136.8391  141.8238  156.2536 C.ar    1  UNL1        0.0786
     30 C         135.8700  142.2857  155.2061 C.3     1  UNL1        0.0538
     31 C         137.6905  142.7064  157.1176 C.ar    1  UNL1        0.0963
     32 C         141.5128  142.5934  156.2458 C.3     1  UNL1        0.2543
     33 O         141.4453  141.6899  157.4411 O.3     1  UNL1       -0.4551
@<TRIPOS>BOND
     1    32    33    1
     2    33    20    1
     3    20    21   ar
     4    21    22   ar
     5    22    18    1
     6    18     1    1
     7     1     2   ar
     8     2     3   ar
     9     3     4   ar
    10     4     5   ar
    11     5     6   ar
    12     6     7   ar
    13     7     8   ar
    14     8    11    1
    15    11    12   ar
    16    12    13   ar
    17    13    14   ar
    18    14    15    1
    19    14    16   ar
    20    16    17   ar
    21     8     9   ar
    22     9    10    1
    23    22    23   ar
    24    23    24   ar
    25    24    25   ar
    26    25    26    1
    27    26    27   ar
    28    27    28   ar
    29    28    29   ar
    30    29    30    1
    31    29    31   ar
    32    25    20   ar
    33    31    26   ar
    34     6     1   ar
    35    17    11   ar
    36     9     5   ar
    37    18    19    1
@<TRIPOS>MOLECULE
*****
 33 37 0 0 0
SMALL
GASTEIGER

@<TRIPOS>ATOM
      1 C         138.2551  140.6082  158.6923 C.ar    1  UNL1        0.0687
      2 C         138.1566  142.0980  158.5488 C.ar    1  UNL1        0.0163
      3 C         139.0772  142.8238  157.6129 C.ar    1  UNL1        0.0029
      4 C         140.0962  142.0597  156.8206 C.ar    1  UNL1        0.0188
      5 C         140.1947  140.5699  156.9641 C.ar    1  UNL1        0.0801
      6 C         139.2742  139.8441  157.9000 C.ar    1  UNL1        0.1120
      7 N         139.6033  138.3821  157.8329 N.ar    1  UNL1       -0.2256
      8 C         140.7273  138.2044  156.8557 C.ar    1  UNL1        0.1439
      9 N         141.0928  139.5565  156.3187 N.ar    1  UNL1       -0.3094
     10 C         142.1676  139.8447  155.3129 C.3     1  UNL1        0.1319
     11 C         141.3725  136.9031  156.4810 C.ar    1  UNL1        0.0343
     12 C         140.7901  136.0666  155.3806 C.ar    1  UNL1        0.0053
     13 C         141.4353  134.7653  155.0060 C.ar    1  UNL1        0.0297
     14 C         142.6630  134.3006  155.7319 C.ar    1  UNL1        0.1401
     15 F         143.3082  132.9992  155.3573 F       1  UNL1       -0.2042
     16 C         143.2453  135.1370  156.8324 C.ar    1  UNL1        0.0297
     17 C         142.6001  136.4383  157.2069 C.ar    1  UNL1        0.0053
     18 N         137.3346  139.8823  159.6282 N.pl3   1  UNL1       -0.2966
     19 H         136.5288  139.4370  159.2792 H       1  UNL1        0.1537
     20 C         137.7155  140.9980  163.4176 C.ar    1  UNL1        0.2428
     21 N         137.4084  141.0454  161.9502 N.ar    1  UNL1       -0.1954
     22 C         137.6417  139.8350  161.0956 C.ar    1  UNL1        0.1354
     23 C         138.1822  138.5770  161.7085 C.ar    1  UNL1        0.0361
     24 C         138.4893  138.5297  163.1760 C.ar    1  UNL1        0.0252
     25 C         138.2560  139.7402  164.0305 C.ar    1  UNL1        0.1190
     26 N         138.5631  139.6929  165.4980 N.ar    1  UNL1       -0.2826
     27 C         137.8363  138.8761  166.5250 C.ar    1  UNL1        0.1826
     28 N         138.4750  139.1324  167.8578 N.ar    1  UNL1       -0.2280
     29 C         139.5965  140.1075  167.6546 C.ar    1  UNL1        0.0786
     30 C         140.5042  140.6424  168.7223 C.3     1  UNL1        0.0538
     31 C         139.6509  140.4539  166.1961 C.ar    1  UNL1        0.0963
     32 C         137.7303  143.5790  163.7151 C.3     1  UNL1        0.2543
     33 O         137.4821  142.2086  164.2722 O.3     1  UNL1       -0.4551
@<TRIPOS>BOND
     1    32    33    1
     2    33    20    1
     3    20    21   ar
     4    21    22   ar
     5    22    18    1
     6    18     1    1
     7     1     2   ar
     8     2     3   ar
     9     3     4   ar
    10     4     5   ar
    11     5     6   ar
    12     6     7   ar
    13     7     8   ar
    14     8    11    1
    15    11    12   ar
    16    12    13   ar
    17    13    14   ar
    18    14    15    1
    19    14    16   ar
    20    16    17   ar
    21     8     9   ar
    22     9    10    1
    23    22    23   ar
    24    23    24   ar
    25    24    25   ar
    26    25    26    1
    27    26    27   ar
    28    27    28   ar
    29    28    29   ar
    30    29    30    1
    31    29    31   ar
    32    25    20   ar
    33    31    26   ar
    34     6     1   ar
    35    17    11   ar
    36     9     5   ar
    37    18    19    1
