@<TRIPOS>MOLECULE
*****
 39 40 0 0 0
SMALL
GASTEIGER

@<TRIPOS>ATOM
      1 C         141.7603  138.2673  158.8408 C.2     1  UNL1        0.2302
      2 O         142.6220  137.6248  159.8871 O.2     1  UNL1       -0.2744
      3 N         140.4827  138.9471  159.2352 N.am    1  UNL1       -0.2836
      4 H         139.9171  139.3688  158.5485 H       1  UNL1        0.1549
      5 C         140.0667  138.9844  160.6760 C.ar    1  UNL1        0.0503
      6 C         140.6969  139.9716  161.6131 C.ar    1  UNL1        0.0144
      7 C         140.2810  140.0090  163.0538 C.ar    1  UNL1       -0.0002
      8 C         139.2350  139.0591  163.5574 C.ar    1  UNL1        0.0182
      9 C         138.6048  138.0718  162.6202 C.ar    1  UNL1       -0.0002
     10 C         139.0208  138.0345  161.1795 C.ar    1  UNL1        0.0144
     11 C         138.8191  139.0964  164.9981 C.3     1  UNL1        0.2827
     12 O         139.3868  137.7225  165.1976 O.3     1  UNL1       -0.3692
     13 H         139.2556  137.4491  166.1190 H       1  UNL1        0.2112
     14 C         138.4032  139.1338  166.4388 C.3     1  UNL1        0.4311
     15 F         137.9874  139.1712  167.8795 F       1  UNL1       -0.1669
     16 F         139.8416  139.2375  166.8513 F       1  UNL1       -0.1669
     17 F         137.5303  139.0757  166.3008 F       1  UNL1       -0.1669
     18 C         138.2514  140.4704  164.7986 C.3     1  UNL1        0.4311
     19 F         137.6836  141.8444  164.5990 F       1  UNL1       -0.1669
     20 F         137.5959  140.2378  164.2501 F       1  UNL1       -0.1669
     21 F         139.1314  141.3517  165.6344 F       1  UNL1       -0.1669
     22 C         142.1762  138.2299  157.4001 C.3     1  UNL1        0.1081
     23 C         145.6003  140.7812  155.9799 C.ar    1  UNL1        0.1056
     24 C         144.9039  141.1095  157.2672 C.ar    1  UNL1        0.0180
     25 C         143.7625  140.2591  157.7406 C.ar    1  UNL1       -0.0025
     26 C         143.3176  139.0803  156.9267 C.ar    1  UNL1       -0.0133
     27 C         144.0140  138.7520  155.6394 C.ar    1  UNL1       -0.0025
     28 C         145.1553  139.6024  155.1660 C.ar    1  UNL1        0.0180
     29 S         146.7416  141.6316  155.5065 S.O2    1  UNL1        0.0087
     30 O         146.8879  142.2030  156.8857 O.2     1  UNL1       -0.1686
     31 O         146.5953  141.0602  154.1273 O.2     1  UNL1       -0.1686
     32 C         149.2645  141.9038  154.9488 C.3     1  UNL1        0.0276
     33 C         147.8830  142.4820  155.0331 C.3     1  UNL1        0.1560
     34 C         141.4508  137.3422  156.4329 C.3     1  UNL1        0.0985
     35 C         141.8524  135.9042  156.2884 C.2     1  UNL1        0.2233
     36 O         143.1002  135.4035  156.9535 O.2     1  UNL1       -0.2751
     37 N         141.0062  134.9669  155.4788 N.am    1  UNL1       -0.3026
     38 C         141.4078  133.5289  155.3343 C.3     1  UNL1        0.1107
     39 H         140.1873  135.2955  155.0423 H       1  UNL1        0.1495
@<TRIPOS>BOND
     1    32    33    1
     2    33    29    1
     3    29    30    2
     4    29    31    2
     5    29    23    1
     6    23    24   ar
     7    24    25   ar
     8    25    26   ar
     9    26    22    1
    10    22    34    1
    11    34    35    1
    12    35    36    2
    13    35    37   am
    14    37    38    1
    15    22     1    1
    16     1     2    2
    17     1     3   am
    18     3     5    1
    19     5     6   ar
    20     6     7   ar
    21     7     8   ar
    22     8    11    1
    23    11    12    1
    24    11    14    1
    25    14    15    1
    26    14    16    1
    27    14    17    1
    28    11    18    1
    29    18    19    1
    30    18    20    1
    31    18    21    1
    32     8     9   ar
    33     9    10   ar
    34    26    27   ar
    35    27    28   ar
    36    28    23   ar
    37    10     5   ar
    38    37    39    1
    39     3     4    1
    40    12    13    1
@<TRIPOS>MOLECULE
*****
 39 40 0 0 0
SMALL
GASTEIGER

@<TRIPOS>ATOM
      1 C         142.0308  138.0823  159.0607 C.2     1  UNL1        0.2302
      2 O         142.8182  137.4115  160.1470 O.2     1  UNL1       -0.2744
      3 N         140.7601  138.8066  159.3934 N.am    1  UNL1       -0.2836
      4 H         140.2432  139.2469  158.6805 H       1  UNL1        0.1549
      5 C         140.2768  138.8600  160.8125 C.ar    1  UNL1        0.0503
      6 C         140.9530  139.7625  161.8016 C.ar    1  UNL1        0.0144
      7 C         140.4698  139.8159  163.2206 C.ar    1  UNL1       -0.0002
      8 C         139.3103  138.9669  163.6506 C.ar    1  UNL1        0.0182
      9 C         138.6340  138.0645  162.6615 C.ar    1  UNL1       -0.0002
     10 C         139.1173  138.0111  161.2424 C.ar    1  UNL1        0.0144
     11 C         138.8270  139.0203  165.0696 C.3     1  UNL1        0.2827
     12 O         139.3779  137.6459  165.3089 O.3     1  UNL1       -0.3692
     13 H         139.2020  137.3822  166.2257 H       1  UNL1        0.2112
     14 C         138.3438  139.0738  166.4886 C.3     1  UNL1        0.4311
     15 F         137.8606  139.1272  167.9076 F       1  UNL1       -0.1669
     16 F         139.7620  139.1674  166.9680 F       1  UNL1       -0.1669
     17 F         137.4779  139.0228  166.3098 F       1  UNL1       -0.1669
     18 C         138.2762  140.3948  164.8302 C.3     1  UNL1        0.4311
     19 F         137.7252  141.7693  164.5908 F       1  UNL1       -0.1669
     20 F         137.6230  140.1554  164.2819 F       1  UNL1       -0.1669
     21 F         139.1584  141.2876  165.6514 F       1  UNL1       -0.1669
     22 C         142.5141  138.0289  157.6417 C.3     1  UNL1        0.1081
     23 C         142.0001  134.2647  155.2299 C.ar    1  UNL1        0.1056
     24 C         141.0533  135.4125  155.0397 C.ar    1  UNL1        0.0180
     25 C         141.2246  136.6672  155.8437 C.ar    1  UNL1       -0.0025
     26 C         142.3427  136.7742  156.8378 C.ar    1  UNL1       -0.0133
     27 C         143.2895  135.6264  157.0280 C.ar    1  UNL1       -0.0025
     28 C         143.1182  134.3717  156.2241 C.ar    1  UNL1        0.0180
     29 S         141.8287  133.0100  154.4260 S.O2    1  UNL1        0.0087
     30 O         142.0429  133.7901  153.1628 O.2     1  UNL1       -0.1686
     31 O         141.6145  132.2299  155.6892 O.2     1  UNL1       -0.1686
     32 C         142.5636  131.4802  152.4589 C.3     1  UNL1        0.0276
     33 C         141.6574  131.7553  153.6221 C.3     1  UNL1        0.1560
     34 C         143.1687  139.2302  157.0267 C.3     1  UNL1        0.0985
     35 C         143.9212  139.0958  155.7361 C.2     1  UNL1        0.2233
     36 O         145.2013  138.3152  155.6920 O.2     1  UNL1       -0.2751
     37 N         143.3936  139.7422  154.4895 N.am    1  UNL1       -0.3026
     38 C         144.1461  139.6078  153.1989 C.3     1  UNL1        0.1107
     39 H         142.5534  140.2545  154.5184 H       1  UNL1        0.1495
@<TRIPOS>BOND
     1    32    33    1
     2    33    29    1
     3    29    30    2
     4    29    31    2
     5    29    23    1
     6    23    24   ar
     7    24    25   ar
     8    25    26   ar
     9    26    22    1
    10    22    34    1
    11    34    35    1
    12    35    36    2
    13    35    37   am
    14    37    38    1
    15    22     1    1
    16     1     2    2
    17     1     3   am
    18     3     5    1
    19     5     6   ar
    20     6     7   ar
    21     7     8   ar
    22     8    11    1
    23    11    12    1
    24    11    14    1
    25    14    15    1
    26    14    16    1
    27    14    17    1
    28    11    18    1
    29    18    19    1
    30    18    20    1
    31    18    21    1
    32     8     9   ar
    33     9    10   ar
    34    26    27   ar
    35    27    28   ar
    36    28    23   ar
    37    10     5   ar
    38    37    39    1
    39     3     4    1
    40    12    13    1
@<TRIPOS>MOLECULE
*****
 39 40 0 0 0
SMALL
GASTEIGER

@<TRIPOS>ATOM
      1 C         141.9270  138.1885  159.0984 C.2     1  UNL1        0.2302
      2 O         142.7990  137.6314  160.1844 O.2     1  UNL1       -0.2744
      3 N         140.6093  138.8169  159.4430 N.am    1  UNL1       -0.2836
      4 H         140.0369  139.1826  158.7303 H       1  UNL1        0.1549
      5 C         140.1637  138.8883  160.8735 C.ar    1  UNL1        0.0503
      6 C         140.7917  139.8812  161.8061 C.ar    1  UNL1        0.0144
      7 C         140.3462  139.9526  163.2366 C.ar    1  UNL1       -0.0002
      8 C         139.2725  139.0310  163.7346 C.ar    1  UNL1        0.0182
      9 C         138.6444  138.0381  162.8020 C.ar    1  UNL1       -0.0002
     10 C         139.0900  137.9668  161.3715 C.ar    1  UNL1        0.0144
     11 C         138.8269  139.1024  165.1650 C.3     1  UNL1        0.2827
     12 O         139.3746  137.7267  165.4043 O.3     1  UNL1       -0.3692
     13 H         139.2210  137.4737  166.3281 H       1  UNL1        0.2112
     14 C         138.3813  139.1738  166.5955 C.3     1  UNL1        0.4311
     15 F         137.9357  139.2452  168.0261 F       1  UNL1       -0.1669
     16 F         139.8081  139.3265  167.0323 F       1  UNL1       -0.1669
     17 F         137.5130  139.0894  166.4425 F       1  UNL1       -0.1669
     18 C         138.2791  140.4781  164.9258 C.3     1  UNL1        0.4311
     19 F         137.7313  141.8539  164.6865 F       1  UNL1       -0.1669
     20 F         137.6315  140.2413  164.3698 F       1  UNL1       -0.1669
     21 F         139.1533  141.3671  165.7598 F       1  UNL1       -0.1669
     22 C         142.3726  138.1171  157.6679 C.3     1  UNL1        0.1081
     23 C         141.6918  134.3618  155.2838 C.ar    1  UNL1        0.1056
     24 C         142.7830  134.4100  156.3120 C.ar    1  UNL1        0.0180
     25 C         143.0099  135.6617  157.1067 C.ar    1  UNL1       -0.0025
     26 C         142.1457  136.8653  156.8732 C.ar    1  UNL1       -0.0133
     27 C         141.0546  136.8171  155.8451 C.ar    1  UNL1       -0.0025
     28 C         140.8277  135.5654  155.0504 C.ar    1  UNL1        0.0180
     29 S         141.4649  133.1100  154.4891 S.O2    1  UNL1        0.0087
     30 O         141.8100  132.2835  155.6924 O.2     1  UNL1       -0.1686
     31 O         141.1198  133.9365  153.2858 O.2     1  UNL1       -0.1686
     32 C         140.2867  130.8130  154.1968 C.3     1  UNL1        0.0276
     33 C         141.2380  131.8582  153.6944 C.3     1  UNL1        0.1560
     34 C         143.0452  139.2975  157.0322 C.3     1  UNL1        0.0985
     35 C         143.0919  140.6122  157.7530 C.2     1  UNL1        0.2233
     36 O         141.8260  141.3786  157.9978 O.2     1  UNL1       -0.2751
     37 N         144.4046  141.1604  158.2289 N.am    1  UNL1       -0.3026
     38 C         144.4513  142.4750  158.9496 C.3     1  UNL1        0.1107
     39 H         145.2355  140.6573  158.0681 H       1  UNL1        0.1495
@<TRIPOS>BOND
     1    32    33    1
     2    33    29    1
     3    29    30    2
     4    29    31    2
     5    29    23    1
     6    23    24   ar
     7    24    25   ar
     8    25    26   ar
     9    26    22    1
    10    22    34    1
    11    34    35    1
    12    35    36    2
    13    35    37   am
    14    37    38    1
    15    22     1    1
    16     1     2    2
    17     1     3   am
    18     3     5    1
    19     5     6   ar
    20     6     7   ar
    21     7     8   ar
    22     8    11    1
    23    11    12    1
    24    11    14    1
    25    14    15    1
    26    14    16    1
    27    14    17    1
    28    11    18    1
    29    18    19    1
    30    18    20    1
    31    18    21    1
    32     8     9   ar
    33     9    10   ar
    34    26    27   ar
    35    27    28   ar
    36    28    23   ar
    37    10     5   ar
    38    37    39    1
    39     3     4    1
    40    12    13    1
@<TRIPOS>MOLECULE
*****
 39 40 0 0 0
SMALL
GASTEIGER

@<TRIPOS>ATOM
      1 C         141.3089  141.3746  161.5960 C.2     1  UNL1        0.2302
      2 O         142.6071  141.2632  162.3393 O.2     1  UNL1       -0.2744
      3 N         140.0090  141.2450  162.3332 N.am    1  UNL1       -0.2836
      4 H         139.1570  141.3181  161.8454 H       1  UNL1        0.1549
      5 C         140.0073  141.0038  163.8138 C.ar    1  UNL1        0.0503
      6 C         140.1603  139.6100  164.3468 C.ar    1  UNL1        0.0144
      7 C         140.1585  139.3688  165.8272 C.ar    1  UNL1       -0.0002
      8 C         140.0038  140.5214  166.7748 C.ar    1  UNL1        0.0182
      9 C         139.8509  141.9151  166.2418 C.ar    1  UNL1       -0.0002
     10 C         139.8526  142.1563  164.7612 C.ar    1  UNL1        0.0144
     11 C         140.0021  140.2802  168.2552 C.3     1  UNL1        0.2827
     12 O         138.7699  139.4363  168.1163 O.3     1  UNL1       -0.3692
     13 H         138.5032  139.1073  168.9889 H       1  UNL1        0.2112
     14 C         140.0004  140.0390  169.7356 C.3     1  UNL1        0.4311
     15 F         139.9986  139.7978  171.2162 F       1  UNL1       -0.1669
     16 F         138.7257  140.8196  169.8613 F       1  UNL1       -0.1669
     17 F         140.7473  139.5642  169.7686 F       1  UNL1       -0.1669
     18 C         141.2344  141.1241  168.3941 C.3     1  UNL1        0.4311
     19 F         142.4667  141.9681  168.5330 F       1  UNL1       -0.1669
     20 F         141.7947  140.5627  168.0000 F       1  UNL1       -0.1669
     21 F         140.7518  142.3583  169.0968 F       1  UNL1       -0.1669
     22 C         141.3107  141.6158  160.1156 C.3     1  UNL1        0.1081
     23 C         142.7419  138.3986  157.3135 C.ar    1  UNL1        0.1056
     24 C         141.7306  138.0750  158.3730 C.ar    1  UNL1        0.0180
     25 C         141.2535  139.1474  159.3070 C.ar    1  UNL1       -0.0025
     26 C         141.7877  140.5434  159.1815 C.ar    1  UNL1       -0.0133
     27 C         142.7990  140.8670  158.1221 C.ar    1  UNL1       -0.0025
     28 C         143.2761  139.7946  157.1881 C.ar    1  UNL1        0.0180
     29 S         143.2189  137.3262  156.3795 S.O2    1  UNL1        0.0087
     30 O         144.3832  138.1865  155.9865 O.2     1  UNL1       -0.1686
     31 O         142.0546  136.4660  156.7725 O.2     1  UNL1       -0.1686
     32 C         143.7694  134.8304  155.9128 C.3     1  UNL1        0.0276
     33 C         143.6960  136.2538  155.4455 C.3     1  UNL1        0.1560
     34 C         140.8354  142.9293  159.5691 C.3     1  UNL1        0.0985
     35 C         140.9326  144.1696  160.4072 C.2     1  UNL1        0.2233
     36 O         142.2763  144.6901  160.8234 O.2     1  UNL1       -0.2751
     37 N         139.6859  144.8893  160.8290 N.am    1  UNL1       -0.3026
     38 C         139.7830  146.1296  161.6670 C.3     1  UNL1        0.1107
     39 H         138.8039  144.5477  160.5558 H       1  UNL1        0.1495
@<TRIPOS>BOND
     1    32    33    1
     2    33    29    1
     3    29    30    2
     4    29    31    2
     5    29    23    1
     6    23    24   ar
     7    24    25   ar
     8    25    26   ar
     9    26    22    1
    10    22    34    1
    11    34    35    1
    12    35    36    2
    13    35    37   am
    14    37    38    1
    15    22     1    1
    16     1     2    2
    17     1     3   am
    18     3     5    1
    19     5     6   ar
    20     6     7   ar
    21     7     8   ar
    22     8    11    1
    23    11    12    1
    24    11    14    1
    25    14    15    1
    26    14    16    1
    27    14    17    1
    28    11    18    1
    29    18    19    1
    30    18    20    1
    31    18    21    1
    32     8     9   ar
    33     9    10   ar
    34    26    27   ar
    35    27    28   ar
    36    28    23   ar
    37    10     5   ar
    38    37    39    1
    39     3     4    1
    40    12    13    1
@<TRIPOS>MOLECULE
*****
 39 40 0 0 0
SMALL
GASTEIGER

@<TRIPOS>ATOM
      1 C         140.6433  138.8625  158.8112 C.2     1  UNL1        0.2302
      2 O         141.5790  139.7285  159.6014 O.2     1  UNL1       -0.2744
      3 N         139.4899  138.1878  159.4927 N.am    1  UNL1       -0.2836
      4 H         138.8757  137.6194  158.9741 H       1  UNL1        0.1549
      5 C         139.2722  138.3792  160.9645 C.ar    1  UNL1        0.0503
      6 C         138.1434  139.2393  161.4501 C.ar    1  UNL1        0.0144
      7 C         137.9257  139.4307  162.9217 C.ar    1  UNL1       -0.0002
      8 C         138.8368  138.7619  163.9080 C.ar    1  UNL1        0.0182
      9 C         139.9657  137.9017  163.4224 C.ar    1  UNL1       -0.0002
     10 C         140.1834  137.7104  161.9506 C.ar    1  UNL1        0.0144
     11 C         138.6191  138.9533  165.3796 C.3     1  UNL1        0.2827
     12 O         138.5472  137.4662  165.5624 O.3     1  UNL1       -0.3692
     13 H         138.3989  137.2624  166.4991 H       1  UNL1        0.2112
     14 C         138.4014  139.1447  166.8513 C.3     1  UNL1        0.4311
     15 F         138.1838  139.3361  168.3231 F       1  UNL1       -0.1669
     16 F         139.8588  139.4533  167.0268 F       1  UNL1       -0.1669
     17 F         137.5317  138.9776  166.8545 F       1  UNL1       -0.1669
     18 C         138.6911  140.4404  165.1969 C.3     1  UNL1        0.4311
     19 F         138.7630  141.9275  165.0142 F       1  UNL1       -0.1669
     20 F         137.8416  140.6128  165.3794 F       1  UNL1       -0.1669
     21 F         140.1233  140.6920  164.8289 F       1  UNL1       -0.1669
     22 C         140.8610  138.6711  157.3395 C.3     1  UNL1        0.1081
     23 C         142.3908  134.7353  155.7842 C.ar    1  UNL1        0.1056
     24 C         143.1501  135.4661  156.8516 C.ar    1  UNL1        0.0180
     25 C         142.6401  136.7781  157.3700 C.ar    1  UNL1       -0.0025
     26 C         141.3709  137.3592  156.8210 C.ar    1  UNL1       -0.0133
     27 C         140.6117  136.6284  155.7537 C.ar    1  UNL1       -0.0025
     28 C         141.1216  135.3164  155.2352 C.ar    1  UNL1        0.0180
     29 S         142.9008  133.4234  155.2658 S.O2    1  UNL1        0.0087
     30 O         144.1265  133.5626  156.1191 O.2     1  UNL1       -0.1686
     31 O         141.6750  133.2841  154.4124 O.2     1  UNL1       -0.1686
     32 C         143.0534  131.6627  153.3614 C.3     1  UNL1        0.0276
     33 C         143.4107  132.1114  154.7473 C.3     1  UNL1        0.1560
     34 C         140.5687  139.7917  156.3862 C.3     1  UNL1        0.0985
     35 C         139.3956  140.6948  156.6273 C.2     1  UNL1        0.2233
     36 O         139.6185  142.1286  157.0073 O.2     1  UNL1       -0.2751
     37 N         137.9995  140.1640  156.4884 N.am    1  UNL1       -0.3026
     38 C         136.8263  141.0671  156.7296 C.3     1  UNL1        0.1107
     39 H         137.8532  139.2229  156.2390 H       1  UNL1        0.1495
@<TRIPOS>BOND
     1    32    33    1
     2    33    29    1
     3    29    30    2
     4    29    31    2
     5    29    23    1
     6    23    24   ar
     7    24    25   ar
     8    25    26   ar
     9    26    22    1
    10    22    34    1
    11    34    35    1
    12    35    36    2
    13    35    37   am
    14    37    38    1
    15    22     1    1
    16     1     2    2
    17     1     3   am
    18     3     5    1
    19     5     6   ar
    20     6     7   ar
    21     7     8   ar
    22     8    11    1
    23    11    12    1
    24    11    14    1
    25    14    15    1
    26    14    16    1
    27    14    17    1
    28    11    18    1
    29    18    19    1
    30    18    20    1
    31    18    21    1
    32     8     9   ar
    33     9    10   ar
    34    26    27   ar
    35    27    28   ar
    36    28    23   ar
    37    10     5   ar
    38    37    39    1
    39     3     4    1
    40    12    13    1
@<TRIPOS>MOLECULE
*****
 39 40 0 0 0
SMALL
GASTEIGER

@<TRIPOS>ATOM
      1 C         141.7064  138.1915  158.9363 C.2     1  UNL1        0.2302
      2 O         142.5618  137.5430  159.9840 O.2     1  UNL1       -0.2744
      3 N         140.4390  138.8906  159.3300 N.am    1  UNL1       -0.2836
      4 H         139.8775  139.3163  158.6424 H       1  UNL1        0.1549
      5 C         140.0270  138.9411  160.7715 C.ar    1  UNL1        0.0503
      6 C         138.9681  138.0093  161.2820 C.ar    1  UNL1        0.0144
      7 C         138.5562  138.0598  162.7234 C.ar    1  UNL1       -0.0002
      8 C         139.2031  139.0420  163.6544 C.ar    1  UNL1        0.0182
      9 C         140.2620  139.9738  163.1439 C.ar    1  UNL1       -0.0002
     10 C         140.6739  139.9233  161.7024 C.ar    1  UNL1        0.0144
     11 C         138.7912  139.0925  165.0958 C.3     1  UNL1        0.2827
     12 O         139.2075  137.6614  165.2649 O.3     1  UNL1       -0.3692
     13 H         139.0460  137.3837  166.1802 H       1  UNL1        0.2112
     14 C         138.3792  139.1429  166.5372 C.3     1  UNL1        0.4311
     15 F         137.9673  139.1934  167.9787 F       1  UNL1       -0.1669
     16 F         139.8195  139.2366  166.9456 F       1  UNL1       -0.1669
     17 F         137.5055  139.0917  166.4017 F       1  UNL1       -0.1669
     18 C         138.3749  140.5236  164.9268 C.3     1  UNL1        0.4311
     19 F         137.9586  141.9548  164.7577 F       1  UNL1       -0.1669
     20 F         138.9372  140.8700  165.5169 F       1  UNL1       -0.1669
     21 F         137.2936  140.4669  163.8887 F       1  UNL1       -0.1669
     22 C         142.1183  138.1410  157.4949 C.3     1  UNL1        0.1081
     23 C         145.5007  140.7223  156.0296 C.ar    1  UNL1        0.1056
     24 C         145.0969  139.5035  155.2540 C.ar    1  UNL1        0.0180
     25 C         143.9695  138.6431  155.7424 C.ar    1  UNL1       -0.0025
     26 C         143.2458  139.0014  157.0064 C.ar    1  UNL1       -0.0133
     27 C         143.6495  140.2202  157.7821 C.ar    1  UNL1       -0.0025
     28 C         144.7769  141.0806  157.2936 C.ar    1  UNL1        0.0180
     29 S         146.6281  141.5827  155.5412 S.O2    1  UNL1        0.0087
     30 O         146.5257  140.9477  154.1861 O.2     1  UNL1       -0.1686
     31 O         146.7305  142.2177  156.8963 O.2     1  UNL1       -0.1686
     32 C         149.1525  141.8982  155.0144 C.3     1  UNL1        0.0276
     33 C         147.7556  142.4431  155.0528 C.3     1  UNL1        0.1560
     34 C         141.4028  137.2301  156.5419 C.3     1  UNL1        0.0985
     35 C         140.0460  137.6038  156.0228 C.2     1  UNL1        0.2233
     36 O         139.1505  138.4915  156.8352 O.2     1  UNL1       -0.2751
     37 N         139.5848  137.0899  154.6911 N.am    1  UNL1       -0.3026
     38 C         138.2280  137.4636  154.1720 C.3     1  UNL1        0.1107
     39 H         140.1726  136.5073  154.1579 H       1  UNL1        0.1495
@<TRIPOS>BOND
     1    32    33    1
     2    33    29    1
     3    29    30    2
     4    29    31    2
     5    29    23    1
     6    23    24   ar
     7    24    25   ar
     8    25    26   ar
     9    26    22    1
    10    22    34    1
    11    34    35    1
    12    35    36    2
    13    35    37   am
    14    37    38    1
    15    22     1    1
    16     1     2    2
    17     1     3   am
    18     3     5    1
    19     5     6   ar
    20     6     7   ar
    21     7     8   ar
    22     8    11    1
    23    11    12    1
    24    11    14    1
    25    14    15    1
    26    14    16    1
    27    14    17    1
    28    11    18    1
    29    18    19    1
    30    18    20    1
    31    18    21    1
    32     8     9   ar
    33     9    10   ar
    34    26    27   ar
    35    27    28   ar
    36    28    23   ar
    37    10     5   ar
    38    37    39    1
    39     3     4    1
    40    12    13    1
@<TRIPOS>MOLECULE
*****
 39 40 0 0 0
SMALL
GASTEIGER

@<TRIPOS>ATOM
      1 C         141.9270  138.1132  157.7346 C.2     1  UNL1        0.2302
      2 O         140.8700  138.2932  158.7837 O.2     1  UNL1       -0.2744
      3 N         143.2863  138.7171  157.9282 N.am    1  UNL1       -0.2836
      4 H         143.9800  138.5989  157.2397 H       1  UNL1        0.1549
      5 C         143.5887  139.5010  159.1708 C.ar    1  UNL1        0.0503
      6 C         143.8322  138.7871  160.4673 C.ar    1  UNL1        0.0144
      7 C         144.1346  139.5710  161.7099 C.ar    1  UNL1       -0.0002
      8 C         144.1935  141.0689  161.6560 C.ar    1  UNL1        0.0182
      9 C         143.9500  141.7829  160.3594 C.ar    1  UNL1       -0.0002
     10 C         143.6476  140.9989  159.1168 C.ar    1  UNL1        0.0144
     11 C         144.4959  141.8528  162.8985 C.3     1  UNL1        0.2827
     12 O         145.9102  142.0411  162.4356 O.3     1  UNL1       -0.3692
     13 H         146.3994  142.5596  163.0934 H       1  UNL1        0.2112
     14 C         144.7983  142.6367  164.1411 C.3     1  UNL1        0.4311
     15 F         145.1007  143.4207  165.3837 F       1  UNL1       -0.1669
     16 F         144.5053  143.9120  163.4079 F       1  UNL1       -0.1669
     17 F         144.9918  141.9458  164.6603 F       1  UNL1       -0.1669
     18 C         143.0816  141.6645  163.3615 C.3     1  UNL1        0.4311
     19 F         141.6673  141.4763  163.8244 F       1  UNL1       -0.1669
     20 F         142.7219  142.3118  162.8754 F       1  UNL1       -0.1669
     21 F         143.1664  140.5251  164.3333 F       1  UNL1       -0.1669
     22 C         141.6245  137.3292  156.4921 C.3     1  UNL1        0.1081
     23 C         142.9748  133.0505  156.1468 C.ar    1  UNL1        0.1056
     24 C         143.6761  133.9846  157.0878 C.ar    1  UNL1        0.0180
     25 C         143.2260  135.4109  157.2029 C.ar    1  UNL1       -0.0025
     26 C         142.0746  135.9030  156.3770 C.ar    1  UNL1       -0.0133
     27 C         141.3734  134.9688  155.4360 C.ar    1  UNL1       -0.0025
     28 C         141.8235  133.5426  155.3209 C.ar    1  UNL1        0.0180
     29 S         143.4249  131.6242  156.0317 S.O2    1  UNL1        0.0087
     30 O         144.8499  132.0601  156.2037 O.2     1  UNL1       -0.1686
     31 O         142.0000  131.1884  155.8596 O.2     1  UNL1       -0.1686
     32 C         143.7908  129.2867  157.1050 C.3     1  UNL1        0.0276
     33 C         143.8750  130.1980  155.9166 C.3     1  UNL1        0.1560
     34 C         140.8720  137.9715  155.3647 C.3     1  UNL1        0.0985
     35 C         139.4155  138.2936  155.5225 C.2     1  UNL1        0.2233
     36 O         138.4201  137.1889  155.7188 O.2     1  UNL1       -0.2751
     37 N         138.9546  139.7206  155.4841 N.am    1  UNL1       -0.3026
     38 C         137.4981  140.0427  155.6420 C.3     1  UNL1        0.1107
     39 H         139.6080  140.4457  155.3553 H       1  UNL1        0.1495
@<TRIPOS>BOND
     1    32    33    1
     2    33    29    1
     3    29    30    2
     4    29    31    2
     5    29    23    1
     6    23    24   ar
     7    24    25   ar
     8    25    26   ar
     9    26    22    1
    10    22    34    1
    11    34    35    1
    12    35    36    2
    13    35    37   am
    14    37    38    1
    15    22     1    1
    16     1     2    2
    17     1     3   am
    18     3     5    1
    19     5     6   ar
    20     6     7   ar
    21     7     8   ar
    22     8    11    1
    23    11    12    1
    24    11    14    1
    25    14    15    1
    26    14    16    1
    27    14    17    1
    28    11    18    1
    29    18    19    1
    30    18    20    1
    31    18    21    1
    32     8     9   ar
    33     9    10   ar
    34    26    27   ar
    35    27    28   ar
    36    28    23   ar
    37    10     5   ar
    38    37    39    1
    39     3     4    1
    40    12    13    1
@<TRIPOS>MOLECULE
*****
 39 40 0 0 0
SMALL
GASTEIGER

@<TRIPOS>ATOM
      1 C         141.7116  142.6792  162.3731 C.2     1  UNL1        0.2302
      2 O         141.1047  141.3308  162.6252 O.2     1  UNL1       -0.2744
      3 N         142.1077  143.5511  163.5276 N.am    1  UNL1       -0.2836
      4 H         142.5060  144.4361  163.3622 H       1  UNL1        0.1549
      5 C         141.8969  143.0746  164.9342 C.ar    1  UNL1        0.0503
      6 C         143.0314  142.4528  165.6934 C.ar    1  UNL1        0.0144
      7 C         142.8206  141.9762  167.0999 C.ar    1  UNL1       -0.0002
      8 C         141.4753  142.1215  167.7474 C.ar    1  UNL1        0.0182
      9 C         140.3408  142.7433  166.9883 C.ar    1  UNL1       -0.0002
     10 C         140.5516  143.2198  165.5816 C.ar    1  UNL1        0.0144
     11 C         141.2645  141.6450  169.1540 C.3     1  UNL1        0.2827
     12 O         141.4393  140.2262  168.6995 O.3     1  UNL1       -0.3692
     13 H         141.3484  139.6299  169.4591 H       1  UNL1        0.2112
     14 C         141.0538  141.1684  170.5605 C.3     1  UNL1        0.4311
     15 F         140.8430  140.6918  171.9672 F       1  UNL1       -0.1669
     16 F         139.7713  140.5105  170.1455 F       1  UNL1       -0.1669
     17 F         141.7902  141.5197  170.9051 F       1  UNL1       -0.1669
     18 C         141.0898  143.0637  169.6085 C.3     1  UNL1        0.4311
     19 F         140.9151  144.4825  170.0630 F       1  UNL1       -0.1669
     20 F         141.9252  143.3245  169.4717 F       1  UNL1       -0.1669
     21 F         139.6438  143.1443  169.9990 F       1  UNL1       -0.1669
     22 C         141.9224  143.1557  160.9665 C.3     1  UNL1        0.1081
     23 C         142.9853  140.2152  157.7302 C.ar    1  UNL1        0.1056
     24 C         144.0701  140.8885  158.5175 C.ar    1  UNL1        0.0180
     25 C         143.7158  141.8687  159.5963 C.ar    1  UNL1       -0.0025
     26 C         142.2767  142.1755  159.8877 C.ar    1  UNL1       -0.0133
     27 C         141.1920  141.5022  159.1004 C.ar    1  UNL1       -0.0025
     28 C         141.5463  140.5220  158.0217 C.ar    1  UNL1        0.0180
     29 S         143.3396  139.2350  156.6515 S.O2    1  UNL1        0.0087
     30 O         143.3200  140.3419  155.6393 O.2     1  UNL1       -0.1686
     31 O         143.3593  138.1281  157.6636 O.2     1  UNL1       -0.1686
     32 C         143.3923  136.7969  155.7555 C.3     1  UNL1        0.0276
     33 C         143.6939  138.2548  155.5727 C.3     1  UNL1        0.1560
     34 C         141.7789  144.6124  160.6387 C.3     1  UNL1        0.0985
     35 C         141.2685  145.0313  159.2919 C.2     1  UNL1        0.2233
     36 O         139.8055  144.9260  158.9782 O.2     1  UNL1       -0.2751
     37 N         142.2212  145.5556  158.2586 N.am    1  UNL1       -0.3026
     38 C         141.7109  145.9745  156.9118 C.3     1  UNL1        0.1107
     39 H         143.1815  145.6247  158.4644 H       1  UNL1        0.1495
@<TRIPOS>BOND
     1    32    33    1
     2    33    29    1
     3    29    30    2
     4    29    31    2
     5    29    23    1
     6    23    24   ar
     7    24    25   ar
     8    25    26   ar
     9    26    22    1
    10    22    34    1
    11    34    35    1
    12    35    36    2
    13    35    37   am
    14    37    38    1
    15    22     1    1
    16     1     2    2
    17     1     3   am
    18     3     5    1
    19     5     6   ar
    20     6     7   ar
    21     7     8   ar
    22     8    11    1
    23    11    12    1
    24    11    14    1
    25    14    15    1
    26    14    16    1
    27    14    17    1
    28    11    18    1
    29    18    19    1
    30    18    20    1
    31    18    21    1
    32     8     9   ar
    33     9    10   ar
    34    26    27   ar
    35    27    28   ar
    36    28    23   ar
    37    10     5   ar
    38    37    39    1
    39     3     4    1
    40    12    13    1
@<TRIPOS>MOLECULE
*****
 39 40 0 0 0
SMALL
GASTEIGER

@<TRIPOS>ATOM
      1 C         142.4584  138.3445  158.4155 C.2     1  UNL1        0.2302
      2 O         141.0791  138.7163  158.8732 O.2     1  UNL1       -0.2744
      3 N         143.6068  138.3929  159.3792 N.am    1  UNL1       -0.2836
      4 H         144.5121  138.1490  159.0789 H       1  UNL1        0.1549
      5 C         143.3760  138.8132  160.8006 C.ar    1  UNL1        0.0503
      6 C         142.7673  137.8514  161.7776 C.ar    1  UNL1        0.0144
      7 C         142.5365  138.2716  163.1988 C.ar    1  UNL1       -0.0002
      8 C         142.9143  139.6536  163.6432 C.ar    1  UNL1        0.0182
      9 C         143.5230  140.6153  162.6662 C.ar    1  UNL1       -0.0002
     10 C         143.7538  140.1951  161.2449 C.ar    1  UNL1        0.0144
     11 C         142.6834  140.0737  165.0645 C.3     1  UNL1        0.2827
     12 O         141.6223  141.0311  164.6092 O.3     1  UNL1       -0.3692
     13 H         141.2529  141.4936  165.3776 H       1  UNL1        0.2112
     14 C         142.4526  140.4939  166.4858 C.3     1  UNL1        0.4311
     15 F         142.2218  140.9141  167.9072 F       1  UNL1       -0.1669
     16 F         143.4228  141.6241  166.3093 F       1  UNL1       -0.1669
     17 F         141.8674  139.8617  166.6916 F       1  UNL1       -0.1669
     18 C         143.7445  139.1163  165.5199 C.3     1  UNL1        0.4311
     19 F         144.8057  138.1589  165.9753 F       1  UNL1       -0.1669
     20 F         144.4423  139.6119  165.2915 F       1  UNL1       -0.1669
     21 F         142.9727  137.9502  166.0625 F       1  UNL1       -0.1669
     22 C         142.6892  137.9243  156.9942 C.3     1  UNL1        0.1081
     23 C         141.9415  133.6625  155.7582 C.ar    1  UNL1        0.1056
     24 C         142.9826  133.9717  156.7928 C.ar    1  UNL1        0.0180
     25 C         143.2318  135.3923  157.2048 C.ar    1  UNL1       -0.0025
     26 C         142.4399  136.5037  156.5822 C.ar    1  UNL1       -0.0133
     27 C         141.3988  136.1945  155.5476 C.ar    1  UNL1       -0.0025
     28 C         141.1496  134.7739  155.1356 C.ar    1  UNL1        0.0180
     29 S         141.6922  132.2419  155.3462 S.O2    1  UNL1        0.0087
     30 O         141.0411  132.7224  154.0832 O.2     1  UNL1       -0.1686
     31 O         142.3433  131.7613  156.6092 O.2     1  UNL1       -0.1686
     32 C         140.0666  130.3902  154.5224 C.3     1  UNL1        0.0276
     33 C         141.4430  130.8212  154.9342 C.3     1  UNL1        0.1560
     34 C         143.1692  138.9247  155.9849 C.3     1  UNL1        0.0985
     35 C         143.7290  140.2398  156.4401 C.2     1  UNL1        0.2233
     36 O         145.0103  140.2802  157.2190 O.2     1  UNL1       -0.2751
     37 N         143.0076  141.5145  156.1162 N.am    1  UNL1       -0.3026
     38 C         143.5675  142.8295  156.5714 C.3     1  UNL1        0.1107
     39 H         142.1667  141.4879  155.6050 H       1  UNL1        0.1495
@<TRIPOS>BOND
     1    32    33    1
     2    33    29    1
     3    29    30    2
     4    29    31    2
     5    29    23    1
     6    23    24   ar
     7    24    25   ar
     8    25    26   ar
     9    26    22    1
    10    22    34    1
    11    34    35    1
    12    35    36    2
    13    35    37   am
    14    37    38    1
    15    22     1    1
    16     1     2    2
    17     1     3   am
    18     3     5    1
    19     5     6   ar
    20     6     7   ar
    21     7     8   ar
    22     8    11    1
    23    11    12    1
    24    11    14    1
    25    14    15    1
    26    14    16    1
    27    14    17    1
    28    11    18    1
    29    18    19    1
    30    18    20    1
    31    18    21    1
    32     8     9   ar
    33     9    10   ar
    34    26    27   ar
    35    27    28   ar
    36    28    23   ar
    37    10     5   ar
    38    37    39    1
    39     3     4    1
    40    12    13    1
