@<TRIPOS>MOLECULE
*****
 37 40 0 0 0
SMALL
GASTEIGER

@<TRIPOS>ATOM
      1 C         142.5196  137.3200  157.2223 C.ar    1  UNL1        0.2245
      2 N         141.0234  137.3972  157.1507 N.ar    1  UNL1       -0.1912
      3 C         140.2721  138.2867  158.0965 C.ar    1  UNL1        0.2037
      4 N         141.0172  139.0990  159.1138 N.ar    1  UNL1       -0.1912
      5 C         142.5135  139.0219  159.1854 C.ar    1  UNL1        0.2240
      6 N         143.2648  138.1324  158.2397 N.ar    1  UNL1       -0.1806
      7 N         143.2586  139.8342  160.2027 N.pl3   1  UNL1       -0.2779
      8 C         143.5953  141.2678  159.9173 C.3     1  UNL1        0.0961
      9 C         144.3403  142.0801  160.9346 C.3     1  UNL1        0.0511
     10 C         144.7487  141.4589  162.2375 C.3     1  UNL1        0.1191
     11 C         144.4120  140.0253  162.5229 C.3     1  UNL1        0.0511
     12 C         143.6669  139.2129  161.5055 C.3     1  UNL1        0.0961
     13 O         145.4937  142.2712  163.2548 O.3     1  UNL1       -0.3514
     14 C         144.8203  142.6720  164.5338 C.3     1  UNL1        0.1685
     15 C         143.3990  143.1513  164.5148 C.ar    1  UNL1        0.0072
     16 C         143.0550  144.4521  163.8518 C.ar    1  UNL1       -0.0022
     17 C         141.6338  144.9314  163.8328 C.ar    1  UNL1       -0.0045
     18 C         140.5567  144.1100  164.4768 C.ar    1  UNL1       -0.0225
     19 C         140.9007  142.8092  165.1399 C.ar    1  UNL1       -0.0045
     20 C         142.3218  142.3299  165.1589 C.ar    1  UNL1       -0.0022
     21 C         139.1354  144.5893  164.4579 C.3     1  UNL1        0.0224
     22 C         138.4808  145.0458  165.7280 C.3     1  UNL1        0.0047
     23 C         138.3687  144.6122  163.1688 C.3     1  UNL1        0.0047
     24 N         143.2709  136.4305  156.2766 N.pl3   1  UNL1       -0.2826
     25 H         144.1020  136.7494  155.8561 H       1  UNL1        0.1551
     26 C         142.6006  132.5291  156.5586 C.ar    1  UNL1        0.0474
     27 C         141.7255  132.3045  155.3612 C.ar    1  UNL1        0.0144
     28 C         141.3656  133.4553  154.4689 C.ar    1  UNL1        0.0025
     29 C         141.8807  134.8306  154.7740 C.ar    1  UNL1        0.0144
     30 C         142.7557  135.0551  155.9714 C.ar    1  UNL1        0.0476
     31 C         143.1157  133.9044  156.8637 C.ar    1  UNL1        0.0051
     32 C         143.9908  134.1290  158.0612 C.3     1  UNL1        0.0336
     33 C         144.6061  129.4854  158.1282 C.3     1  UNL1        0.0949
     34 C         144.2461  130.6361  157.2359 C.2     1  UNL1        0.2266
     35 O         145.1719  131.0447  156.1286 O.2     1  UNL1       -0.2748
     36 N         142.9605  131.3783  157.4509 N.am    1  UNL1       -0.2841
     37 H         142.3529  131.1102  158.1777 H       1  UNL1        0.1548
@<TRIPOS>BOND
     1    33    34    1
     2    34    35    2
     3    34    36   am
     4    36    26    1
     5    26    27   ar
     6    27    28   ar
     7    28    29   ar
     8    29    30   ar
     9    30    24    1
    10    24     1    1
    11     1     2   ar
    12     2     3   ar
    13     3     4   ar
    14     4     5   ar
    15     5     7    1
    16     7     8    1
    17     8     9    1
    18     9    10    1
    19    10    13    1
    20    13    14    1
    21    14    15    1
    22    15    16   ar
    23    16    17   ar
    24    17    18   ar
    25    18    21    1
    26    21    22    1
    27    21    23    1
    28    18    19   ar
    29    19    20   ar
    30    10    11    1
    31    11    12    1
    32     5     6   ar
    33    30    31   ar
    34    31    32    1
    35    31    26   ar
    36     6     1   ar
    37    12     7    1
    38    20    15   ar
    39    36    37    1
    40    24    25    1
@<TRIPOS>MOLECULE
*****
 37 40 0 0 0
SMALL
GASTEIGER

@<TRIPOS>ATOM
      1 C         142.3721  137.5449  158.0364 C.ar    1  UNL1        0.2245
      2 N         141.0901  138.1668  157.5677 N.ar    1  UNL1       -0.1912
      3 C         140.1782  138.8375  158.5518 C.ar    1  UNL1        0.2037
      4 N         140.5482  138.8863  160.0046 N.ar    1  UNL1       -0.1912
      5 C         141.8302  138.2644  160.4734 C.ar    1  UNL1        0.2240
      6 N         142.7422  137.5937  159.4893 N.ar    1  UNL1       -0.1806
      7 N         142.2002  138.3133  161.9262 N.pl3   1  UNL1       -0.2779
      8 C         141.2826  137.7206  162.9542 C.3     1  UNL1        0.0961
      9 C         141.6526  137.7694  164.4070 C.3     1  UNL1        0.0511
     10 C         142.9403  138.4109  164.8319 C.3     1  UNL1        0.1191
     11 C         143.8579  139.0036  163.8039 C.3     1  UNL1        0.0511
     12 C         143.4878  138.9548  162.3510 C.3     1  UNL1        0.0961
     13 O         143.3103  138.4598  166.2847 O.3     1  UNL1       -0.3514
     14 C         142.6980  139.4957  167.1802 C.3     1  UNL1        0.1685
     15 C         142.0188  140.6939  166.5859 C.ar    1  UNL1        0.0072
     16 C         140.5232  140.8030  166.6219 C.ar    1  UNL1       -0.0022
     17 C         139.8440  142.0011  166.0277 C.ar    1  UNL1       -0.0045
     18 C         140.6605  143.0902  165.3975 C.ar    1  UNL1       -0.0225
     19 C         142.1561  142.9812  165.3615 C.ar    1  UNL1       -0.0045
     20 C         142.8352  141.7830  165.9557 C.ar    1  UNL1       -0.0022
     21 C         139.9813  144.2885  164.8033 C.3     1  UNL1        0.0224
     22 C         140.6130  145.0149  163.6529 C.3     1  UNL1        0.0047
     23 C         138.6706  144.7602  165.3594 C.3     1  UNL1        0.0047
     24 N         143.2841  136.8742  157.0523 N.pl3   1  UNL1       -0.2826
     25 H         144.1440  137.2907  156.8151 H       1  UNL1        0.1551
     26 C         142.7499  132.9764  156.5314 C.ar    1  UNL1        0.0474
     27 C         142.0895  132.9583  155.1847 C.ar    1  UNL1        0.0144
     28 C         141.8273  134.2455  154.4606 C.ar    1  UNL1        0.0025
     29 C         142.2255  135.5508  155.0831 C.ar    1  UNL1        0.0144
     30 C         142.8859  135.5689  156.4297 C.ar    1  UNL1        0.0476
     31 C         143.1481  134.2817  157.1539 C.ar    1  UNL1        0.0051
     32 C         143.8085  134.2998  158.5006 C.3     1  UNL1        0.0336
     33 C         144.5921  129.7045  157.8162 C.3     1  UNL1        0.0949
     34 C         144.3299  130.9917  157.0920 C.2     1  UNL1        0.2266
     35 O         145.3856  131.5813  156.2044 O.2     1  UNL1       -0.2748
     36 N         143.0121  131.6892  157.2555 N.am    1  UNL1       -0.2841
     37 H         142.3192  131.3021  157.8380 H       1  UNL1        0.1548
@<TRIPOS>BOND
     1    33    34    1
     2    34    35    2
     3    34    36   am
     4    36    26    1
     5    26    27   ar
     6    27    28   ar
     7    28    29   ar
     8    29    30   ar
     9    30    24    1
    10    24     1    1
    11     1     2   ar
    12     2     3   ar
    13     3     4   ar
    14     4     5   ar
    15     5     7    1
    16     7     8    1
    17     8     9    1
    18     9    10    1
    19    10    13    1
    20    13    14    1
    21    14    15    1
    22    15    16   ar
    23    16    17   ar
    24    17    18   ar
    25    18    21    1
    26    21    22    1
    27    21    23    1
    28    18    19   ar
    29    19    20   ar
    30    10    11    1
    31    11    12    1
    32     5     6   ar
    33    30    31   ar
    34    31    32    1
    35    31    26   ar
    36     6     1   ar
    37    12     7    1
    38    20    15   ar
    39    36    37    1
    40    24    25    1
@<TRIPOS>MOLECULE
*****
 37 40 0 0 0
SMALL
GASTEIGER

@<TRIPOS>ATOM
      1 C         143.7274  140.1087  158.7877 C.ar    1  UNL1        0.2245
      2 N         143.2608  138.9311  157.9843 N.ar    1  UNL1       -0.1912
      3 C         142.8006  137.6840  158.6792 C.ar    1  UNL1        0.2037
      4 N         142.8070  137.6144  160.1775 N.ar    1  UNL1       -0.1912
      5 C         143.2737  138.7920  160.9810 C.ar    1  UNL1        0.2240
      6 N         143.7339  140.0391  160.2862 N.ar    1  UNL1       -0.1806
      7 N         143.2801  138.7224  162.4794 N.pl3   1  UNL1       -0.2779
      8 C         142.2012  137.9694  163.1999 C.3     1  UNL1        0.0961
      9 C         142.2076  137.8998  164.6982 C.3     1  UNL1        0.0511
     10 C         143.2929  138.5833  165.4761 C.3     1  UNL1        0.1191
     11 C         144.3718  139.3363  164.7557 C.3     1  UNL1        0.0511
     12 C         144.3653  139.4058  163.2572 C.3     1  UNL1        0.0961
     13 O         143.2994  138.5137  166.9745 O.3     1  UNL1       -0.3514
     14 C         142.5236  139.5172  167.7752 C.3     1  UNL1        0.1685
     15 C         141.5941  140.4708  167.0847 C.ar    1  UNL1        0.0072
     16 C         142.0646  141.8489  166.7252 C.ar    1  UNL1       -0.0022
     17 C         141.1352  142.8025  166.0347 C.ar    1  UNL1       -0.0045
     18 C         139.7352  142.3778  165.7037 C.ar    1  UNL1       -0.0225
     19 C         139.2646  140.9996  166.0631 C.ar    1  UNL1       -0.0045
     20 C         140.1941  140.0461  166.7536 C.ar    1  UNL1       -0.0022
     21 C         138.8056  143.3313  165.0131 C.3     1  UNL1        0.0224
     22 C         137.8168  142.8194  164.0081 C.3     1  UNL1        0.0047
     23 C         138.8650  144.7968  165.3276 C.3     1  UNL1        0.0047
     24 N         144.1876  141.3558  158.0928 N.pl3   1  UNL1       -0.2826
     25 H         145.1205  141.4338  157.7881 H       1  UNL1        0.1551
     26 C         141.9051  144.5331  158.7599 C.ar    1  UNL1        0.0474
     27 C         141.3041  144.7406  157.4013 C.ar    1  UNL1        0.0144
     28 C         141.6643  143.8199  156.2733 C.ar    1  UNL1        0.0025
     29 C         142.6254  142.6916  156.5038 C.ar    1  UNL1        0.0144
     30 C         143.2264  142.4841  157.8623 C.ar    1  UNL1        0.0476
     31 C         142.8663  143.4049  158.9904 C.ar    1  UNL1        0.0051
     32 C         143.4674  143.1973  160.3490 C.3     1  UNL1        0.0336
     33 C         139.9204  146.1518  161.7915 C.3     1  UNL1        0.0949
     34 C         140.2805  145.2310  160.6634 C.2     1  UNL1        0.2266
     35 O         139.3762  144.0874  160.3109 O.2     1  UNL1       -0.2748
     36 N         141.5450  145.4539  159.8879 N.am    1  UNL1       -0.2841
     37 H         142.1385  146.2045  160.1193 H       1  UNL1        0.1548
@<TRIPOS>BOND
     1    33    34    1
     2    34    35    2
     3    34    36   am
     4    36    26    1
     5    26    27   ar
     6    27    28   ar
     7    28    29   ar
     8    29    30   ar
     9    30    24    1
    10    24     1    1
    11     1     2   ar
    12     2     3   ar
    13     3     4   ar
    14     4     5   ar
    15     5     7    1
    16     7     8    1
    17     8     9    1
    18     9    10    1
    19    10    13    1
    20    13    14    1
    21    14    15    1
    22    15    16   ar
    23    16    17   ar
    24    17    18   ar
    25    18    21    1
    26    21    22    1
    27    21    23    1
    28    18    19   ar
    29    19    20   ar
    30    10    11    1
    31    11    12    1
    32     5     6   ar
    33    30    31   ar
    34    31    32    1
    35    31    26   ar
    36     6     1   ar
    37    12     7    1
    38    20    15   ar
    39    36    37    1
    40    24    25    1
@<TRIPOS>MOLECULE
*****
 37 40 0 0 0
SMALL
GASTEIGER

@<TRIPOS>ATOM
      1 C         143.3721  139.9670  159.1742 C.ar    1  UNL1        0.2245
      2 N         143.4581  138.9906  158.0389 N.ar    1  UNL1       -0.1912
      3 C         142.7269  137.6832  158.1170 C.ar    1  UNL1        0.2037
      4 N         141.9096  137.3523  159.3304 N.ar    1  UNL1       -0.1912
      5 C         141.8235  138.3288  160.4658 C.ar    1  UNL1        0.2240
      6 N         142.5547  139.6362  160.3878 N.ar    1  UNL1       -0.1806
      7 N         141.0062  137.9979  161.6793 N.pl3   1  UNL1       -0.2779
      8 C         139.5084  138.0001  161.5982 C.3     1  UNL1        0.0961
      9 C         138.6911  137.6692  162.8116 C.3     1  UNL1        0.0511
     10 C         139.3716  137.3361  164.1062 C.3     1  UNL1        0.1191
     11 C         140.8694  137.3339  164.1874 C.3     1  UNL1        0.0511
     12 C         141.6867  137.6648  162.9738 C.3     1  UNL1        0.0961
     13 O         138.5543  137.0052  165.3197 O.3     1  UNL1       -0.3514
     14 C         138.1551  138.0913  166.2741 C.3     1  UNL1        0.1685
     15 C         138.5756  139.5080  166.0165 C.ar    1  UNL1        0.0072
     16 C         137.8772  140.3181  164.9649 C.ar    1  UNL1       -0.0022
     17 C         138.2977  141.7347  164.7072 C.ar    1  UNL1       -0.0045
     18 C         139.4164  142.3412  165.5013 C.ar    1  UNL1       -0.0225
     19 C         140.1147  141.5310  166.5529 C.ar    1  UNL1       -0.0045
     20 C         139.6943  140.1144  166.8106 C.ar    1  UNL1       -0.0022
     21 C         139.8369  143.7579  165.2437 C.3     1  UNL1        0.0224
     22 C         138.8330  144.8680  165.3426 C.3     1  UNL1        0.0047
     23 C         141.2613  144.0644  164.8872 C.3     1  UNL1        0.0047
     24 N         144.1033  141.2744  159.0962 N.pl3   1  UNL1       -0.2826
     25 H         144.6582  141.4818  158.3099 H       1  UNL1        0.1551
     26 C         142.8337  144.3355  161.2797 C.ar    1  UNL1        0.0474
     27 C         143.7604  144.2483  162.4559 C.ar    1  UNL1        0.0144
     28 C         144.8014  143.1698  162.5123 C.ar    1  UNL1        0.0025
     29 C         144.9157  142.1785  161.3924 C.ar    1  UNL1        0.0144
     30 C         143.9890  142.2657  160.2162 C.ar    1  UNL1        0.0476
     31 C         142.9480  143.3442  160.1598 C.ar    1  UNL1        0.0051
     32 C         142.0213  143.4314  158.9835 C.3     1  UNL1        0.0336
     33 C         139.3148  146.1631  161.4442 C.3     1  UNL1        0.0949
     34 C         140.3558  145.0846  161.5006 C.2     1  UNL1        0.2266
     35 O         139.9599  143.6768  161.8341 O.2     1  UNL1       -0.2748
     36 N         141.7927  145.4140  161.2234 N.am    1  UNL1       -0.2841
     37 H         142.0525  146.3380  161.0044 H       1  UNL1        0.1548
@<TRIPOS>BOND
     1    33    34    1
     2    34    35    2
     3    34    36   am
     4    36    26    1
     5    26    27   ar
     6    27    28   ar
     7    28    29   ar
     8    29    30   ar
     9    30    24    1
    10    24     1    1
    11     1     2   ar
    12     2     3   ar
    13     3     4   ar
    14     4     5   ar
    15     5     7    1
    16     7     8    1
    17     8     9    1
    18     9    10    1
    19    10    13    1
    20    13    14    1
    21    14    15    1
    22    15    16   ar
    23    16    17   ar
    24    17    18   ar
    25    18    21    1
    26    21    22    1
    27    21    23    1
    28    18    19   ar
    29    19    20   ar
    30    10    11    1
    31    11    12    1
    32     5     6   ar
    33    30    31   ar
    34    31    32    1
    35    31    26   ar
    36     6     1   ar
    37    12     7    1
    38    20    15   ar
    39    36    37    1
    40    24    25    1
@<TRIPOS>MOLECULE
*****
 37 40 0 0 0
SMALL
GASTEIGER

@<TRIPOS>ATOM
      1 C         136.4120  140.7801  156.6944 C.ar    1  UNL1        0.2245
      2 N         136.8168  142.1052  156.1198 N.ar    1  UNL1       -0.1912
      3 C         137.8053  142.9676  156.8472 C.ar    1  UNL1        0.2037
      4 N         138.3890  142.5049  158.1491 N.ar    1  UNL1       -0.1912
      5 C         137.9842  141.1797  158.7238 C.ar    1  UNL1        0.2240
      6 N         136.9957  140.3173  157.9964 N.ar    1  UNL1       -0.1806
      7 N         138.5679  140.7171  160.0258 N.pl3   1  UNL1       -0.2779
      8 C         137.7308  140.7320  161.2704 C.3     1  UNL1        0.0961
      9 C         138.3145  140.2694  162.5724 C.3     1  UNL1        0.0511
     10 C         139.7353  139.7917  162.6298 C.3     1  UNL1        0.1191
     11 C         140.5724  139.7767  161.3851 C.3     1  UNL1        0.0511
     12 C         139.9886  140.2394  160.0831 C.3     1  UNL1        0.0961
     13 O         140.3190  139.3290  163.9318 O.3     1  UNL1       -0.3514
     14 C         139.4595  139.2681  165.1595 C.3     1  UNL1        0.1685
     15 C         139.7781  140.1345  166.3419 C.ar    1  UNL1        0.0072
     16 C         140.5243  141.4214  166.1492 C.ar    1  UNL1       -0.0022
     17 C         140.8429  142.2879  167.3315 C.ar    1  UNL1       -0.0045
     18 C         140.4153  141.8674  168.7064 C.ar    1  UNL1       -0.0225
     19 C         139.6691  140.5805  168.8990 C.ar    1  UNL1       -0.0045
     20 C         139.3505  139.7141  167.7168 C.ar    1  UNL1       -0.0022
     21 C         140.7339  142.7338  169.8887 C.3     1  UNL1        0.0224
     22 C         142.1480  143.1644  170.1437 C.3     1  UNL1        0.0047
     23 C         139.6384  143.1697  170.8160 C.3     1  UNL1        0.0047
     24 N         135.4235  139.9177  155.9670 N.pl3   1  UNL1       -0.2826
     25 H         135.7260  139.0992  155.5111 H       1  UNL1        0.1551
     26 C         131.5852  140.1609  156.9460 C.ar    1  UNL1        0.0474
     27 C         131.0750  141.0715  155.8688 C.ar    1  UNL1        0.0144
     28 C         132.0143  141.5975  154.8243 C.ar    1  UNL1        0.0025
     29 C         133.4638  141.2129  154.8570 C.ar    1  UNL1        0.0144
     30 C         133.9739  140.3023  155.9342 C.ar    1  UNL1        0.0476
     31 C         133.0346  139.7763  156.9787 C.ar    1  UNL1        0.0051
     32 C         133.5448  138.8656  158.0560 C.3     1  UNL1        0.0336
     33 C         128.9846  137.8134  158.8104 C.3     1  UNL1        0.0949
     34 C         129.9239  138.3394  157.7659 C.2     1  UNL1        0.2266
     35 O         130.1413  137.5699  156.4968 O.2     1  UNL1       -0.2748
     36 N         130.6458  139.6349  157.9905 N.am    1  UNL1       -0.2841
     37 H         130.5032  140.1399  158.8235 H       1  UNL1        0.1548
@<TRIPOS>BOND
     1    33    34    1
     2    34    35    2
     3    34    36   am
     4    36    26    1
     5    26    27   ar
     6    27    28   ar
     7    28    29   ar
     8    29    30   ar
     9    30    24    1
    10    24     1    1
    11     1     2   ar
    12     2     3   ar
    13     3     4   ar
    14     4     5   ar
    15     5     7    1
    16     7     8    1
    17     8     9    1
    18     9    10    1
    19    10    13    1
    20    13    14    1
    21    14    15    1
    22    15    16   ar
    23    16    17   ar
    24    17    18   ar
    25    18    21    1
    26    21    22    1
    27    21    23    1
    28    18    19   ar
    29    19    20   ar
    30    10    11    1
    31    11    12    1
    32     5     6   ar
    33    30    31   ar
    34    31    32    1
    35    31    26   ar
    36     6     1   ar
    37    12     7    1
    38    20    15   ar
    39    36    37    1
    40    24    25    1
@<TRIPOS>MOLECULE
*****
 37 40 0 0 0
SMALL
GASTEIGER

@<TRIPOS>ATOM
      1 C         142.3763  137.4373  157.9487 C.ar    1  UNL1        0.2245
      2 N         141.1588  138.1601  157.4534 N.ar    1  UNL1       -0.1912
      3 C         140.2943  138.9198  158.4154 C.ar    1  UNL1        0.2037
      4 N         140.6473  138.9567  159.8728 N.ar    1  UNL1       -0.1912
      5 C         141.8648  138.2340  160.3682 C.ar    1  UNL1        0.2240
      6 N         142.7293  137.4743  159.4062 N.ar    1  UNL1       -0.1806
      7 N         142.2178  138.2709  161.8256 N.pl3   1  UNL1       -0.2779
      8 C         141.3570  137.5555  162.8242 C.3     1  UNL1        0.0961
      9 C         141.7100  137.5925  164.2815 C.3     1  UNL1        0.0511
     10 C         142.9238  138.3449  164.7404 C.3     1  UNL1        0.1191
     11 C         143.7846  139.0603  163.7418 C.3     1  UNL1        0.0511
     12 C         143.4316  139.0233  162.2844 C.3     1  UNL1        0.0961
     13 O         143.2768  138.3819  166.1978 O.3     1  UNL1       -0.3514
     14 C         142.6953  139.4436  167.0836 C.3     1  UNL1        0.1685
     15 C         141.7077  140.4262  166.5276 C.ar    1  UNL1        0.0072
     16 C         140.2534  140.0666  166.4519 C.ar    1  UNL1       -0.0022
     17 C         139.2658  141.0491  165.8960 C.ar    1  UNL1       -0.0045
     18 C         139.7325  142.3913  165.4157 C.ar    1  UNL1       -0.0225
     19 C         141.1868  142.7509  165.4913 C.ar    1  UNL1       -0.0045
     20 C         142.1744  141.7684  166.0473 C.ar    1  UNL1       -0.0022
     21 C         138.7448  143.3740  164.8596 C.3     1  UNL1        0.0224
     22 C         137.6299  142.8983  163.9761 C.3     1  UNL1        0.0047
     23 C         138.8722  144.8322  165.1872 C.3     1  UNL1        0.0047
     24 N         143.2408  136.6777  156.9867 N.pl3   1  UNL1       -0.2826
     25 H         143.9012  137.1559  156.4350 H       1  UNL1        0.1551
     26 C         141.9485  133.1184  155.7984 C.ar    1  UNL1        0.0474
     27 C         142.8152  132.2127  156.6221 C.ar    1  UNL1        0.0144
     28 C         143.8238  132.7953  157.5673 C.ar    1  UNL1        0.0025
     29 C         143.9656  134.2836  157.6889 C.ar    1  UNL1        0.0144
     30 C         143.0989  135.1893  156.8652 C.ar    1  UNL1        0.0476
     31 C         142.0904  134.6067  155.9200 C.ar    1  UNL1        0.0051
     32 C         141.2237  135.5125  155.0963 C.3     1  UNL1        0.0336
     33 C         140.3667  131.4492  152.5640 C.3     1  UNL1        0.0949
     34 C         141.3753  132.0318  153.5092 C.2     1  UNL1        0.2266
     35 O         142.8192  132.1104  153.1103 O.2     1  UNL1       -0.2748
     36 N         140.9400  132.5358  154.8532 N.am    1  UNL1       -0.2841
     37 H         139.9923  132.4842  155.1150 H       1  UNL1        0.1548
@<TRIPOS>BOND
     1    33    34    1
     2    34    35    2
     3    34    36   am
     4    36    26    1
     5    26    27   ar
     6    27    28   ar
     7    28    29   ar
     8    29    30   ar
     9    30    24    1
    10    24     1    1
    11     1     2   ar
    12     2     3   ar
    13     3     4   ar
    14     4     5   ar
    15     5     7    1
    16     7     8    1
    17     8     9    1
    18     9    10    1
    19    10    13    1
    20    13    14    1
    21    14    15    1
    22    15    16   ar
    23    16    17   ar
    24    17    18   ar
    25    18    21    1
    26    21    22    1
    27    21    23    1
    28    18    19   ar
    29    19    20   ar
    30    10    11    1
    31    11    12    1
    32     5     6   ar
    33    30    31   ar
    34    31    32    1
    35    31    26   ar
    36     6     1   ar
    37    12     7    1
    38    20    15   ar
    39    36    37    1
    40    24    25    1
@<TRIPOS>MOLECULE
*****
 37 40 0 0 0
SMALL
GASTEIGER

@<TRIPOS>ATOM
      1 C         142.8920  137.7138  156.9686 C.ar    1  UNL1        0.2245
      2 N         142.5037  138.9401  156.1970 N.ar    1  UNL1       -0.1912
      3 C         141.5569  139.9361  156.7983 C.ar    1  UNL1        0.2037
      4 N         140.9983  139.7058  158.1712 N.ar    1  UNL1       -0.1912
      5 C         141.3865  138.4794  158.9429 C.ar    1  UNL1        0.2240
      6 N         142.3334  137.4834  158.3416 N.ar    1  UNL1       -0.1806
      7 N         140.8280  138.2491  160.3158 N.pl3   1  UNL1       -0.2779
      8 C         141.7491  137.9359  161.4574 C.3     1  UNL1        0.0961
      9 C         141.1905  137.7056  162.8303 C.3     1  UNL1        0.0511
     10 C         139.7107  137.7885  163.0616 C.3     1  UNL1        0.1191
     11 C         138.7896  138.1017  161.9199 C.3     1  UNL1        0.0511
     12 C         139.3482  138.3320  160.5470 C.3     1  UNL1        0.0961
     13 O         139.1521  137.5582  164.4345 O.3     1  UNL1       -0.3514
     14 C         138.6259  138.7134  165.2336 C.3     1  UNL1        0.1685
     15 C         138.9703  140.1185  164.8370 C.ar    1  UNL1        0.0072
     16 C         140.3507  140.6506  165.0843 C.ar    1  UNL1       -0.0022
     17 C         140.6951  142.0556  164.6877 C.ar    1  UNL1       -0.0045
     18 C         139.6591  142.9285  164.0438 C.ar    1  UNL1       -0.0225
     19 C         138.2786  142.3964  163.7966 C.ar    1  UNL1       -0.0045
     20 C         137.9342  140.9914  164.1931 C.ar    1  UNL1       -0.0022
     21 C         140.0034  144.3336  163.6472 C.3     1  UNL1        0.0224
     22 C         141.3361  144.9127  164.0196 C.3     1  UNL1        0.0047
     23 C         139.0152  145.1594  162.8782 C.3     1  UNL1        0.0047
     24 N         143.8388  136.7178  156.3673 N.pl3   1  UNL1       -0.2826
     25 H         144.7993  136.9254  156.3077 H       1  UNL1        0.1551
     26 C         142.8170  132.8852  156.2360 C.ar    1  UNL1        0.0474
     27 C         142.2888  132.7804  154.8360 C.ar    1  UNL1        0.0144
     28 C         142.2773  133.9881  153.9464 C.ar    1  UNL1        0.0025
     29 C         142.7939  135.3006  154.4568 C.ar    1  UNL1        0.0144
     30 C         143.3221  135.4053  155.8568 C.ar    1  UNL1        0.0476
     31 C         143.3336  134.1976  156.7464 C.ar    1  UNL1        0.0051
     32 C         143.8618  134.3024  158.1465 C.3     1  UNL1        0.0336
     33 C         143.9968  129.5160  157.9699 C.3     1  UNL1        0.0949
     34 C         143.9853  130.7237  157.0804 C.2     1  UNL1        0.2266
     35 O         145.1306  130.9776  156.1456 O.2     1  UNL1       -0.2748
     36 N         142.8285  131.6775  157.1255 N.am    1  UNL1       -0.2841
     37 H         142.0768  131.5108  157.7390 H       1  UNL1        0.1548
@<TRIPOS>BOND
     1    33    34    1
     2    34    35    2
     3    34    36   am
     4    36    26    1
     5    26    27   ar
     6    27    28   ar
     7    28    29   ar
     8    29    30   ar
     9    30    24    1
    10    24     1    1
    11     1     2   ar
    12     2     3   ar
    13     3     4   ar
    14     4     5   ar
    15     5     7    1
    16     7     8    1
    17     8     9    1
    18     9    10    1
    19    10    13    1
    20    13    14    1
    21    14    15    1
    22    15    16   ar
    23    16    17   ar
    24    17    18   ar
    25    18    21    1
    26    21    22    1
    27    21    23    1
    28    18    19   ar
    29    19    20   ar
    30    10    11    1
    31    11    12    1
    32     5     6   ar
    33    30    31   ar
    34    31    32    1
    35    31    26   ar
    36     6     1   ar
    37    12     7    1
    38    20    15   ar
    39    36    37    1
    40    24    25    1
@<TRIPOS>MOLECULE
*****
 37 40 0 0 0
SMALL
GASTEIGER

@<TRIPOS>ATOM
      1 C         142.7394  137.6984  157.4021 C.ar    1  UNL1        0.2245
      2 N         141.2517  137.5561  157.2742 N.ar    1  UNL1       -0.1912
      3 C         140.3434  138.3266  158.1859 C.ar    1  UNL1        0.2037
      4 N         140.9229  139.2394  159.2256 N.ar    1  UNL1       -0.1912
      5 C         142.4106  139.3818  159.3536 C.ar    1  UNL1        0.2240
      6 N         143.3189  138.6112  158.4419 N.ar    1  UNL1       -0.1806
      7 N         142.9901  140.2946  160.3933 N.pl3   1  UNL1       -0.2779
      8 C         143.9189  139.7487  161.4370 C.3     1  UNL1        0.0961
      9 C         144.4984  140.6615  162.4767 C.3     1  UNL1        0.0511
     10 C         144.1489  142.1202  162.4728 C.3     1  UNL1        0.1191
     11 C         143.2200  142.6661  161.4291 C.3     1  UNL1        0.0511
     12 C         142.6406  141.7532  160.3894 C.3     1  UNL1        0.0961
     13 O         144.7283  143.0330  163.5125 O.3     1  UNL1       -0.3514
     14 C         143.8466  143.6079  164.5812 C.3     1  UNL1        0.1685
     15 C         142.7749  142.7631  165.2040 C.ar    1  UNL1        0.0072
     16 C         141.3313  143.1265  165.0192 C.ar    1  UNL1       -0.0022
     17 C         140.2596  142.2818  165.6420 C.ar    1  UNL1       -0.0045
     18 C         140.6315  141.0737  166.4496 C.ar    1  UNL1       -0.0225
     19 C         142.0750  140.7103  166.6344 C.ar    1  UNL1       -0.0045
     20 C         143.1467  141.5550  166.0116 C.ar    1  UNL1       -0.0022
     21 C         139.5597  140.2289  167.0724 C.3     1  UNL1        0.0224
     22 C         138.5648  139.5186  166.2032 C.3     1  UNL1        0.0047
     23 C         139.4830  140.0946  168.5644 C.3     1  UNL1        0.0047
     24 N         143.6477  136.9279  156.4904 N.pl3   1  UNL1       -0.2826
     25 H         144.5686  137.2394  156.3346 H       1  UNL1        0.1551
     26 C         142.6802  133.1287  155.8736 C.ar    1  UNL1        0.0474
     27 C         142.1635  133.1926  154.4669 C.ar    1  UNL1        0.0144
     28 C         142.1415  134.5015  153.7346 C.ar    1  UNL1        0.0025
     29 C         142.6363  135.7466  154.4091 C.ar    1  UNL1        0.0144
     30 C         143.1530  135.6828  155.8158 C.ar    1  UNL1        0.0476
     31 C         143.1749  134.3738  156.5481 C.ar    1  UNL1        0.0051
     32 C         143.6917  134.3100  157.9549 C.3     1  UNL1        0.0336
     33 C         143.9840  129.6982  157.3841 C.3     1  UNL1        0.0949
     34 C         143.9621  131.0071  156.6518 C.2     1  UNL1        0.2266
     35 O         145.2001  131.5034  155.9654 O.2     1  UNL1       -0.2748
     36 N         142.7022  131.8198  156.6059 N.am    1  UNL1       -0.2841
     37 H         141.8896  131.4941  157.0564 H       1  UNL1        0.1548
@<TRIPOS>BOND
     1    33    34    1
     2    34    35    2
     3    34    36   am
     4    36    26    1
     5    26    27   ar
     6    27    28   ar
     7    28    29   ar
     8    29    30   ar
     9    30    24    1
    10    24     1    1
    11     1     2   ar
    12     2     3   ar
    13     3     4   ar
    14     4     5   ar
    15     5     7    1
    16     7     8    1
    17     8     9    1
    18     9    10    1
    19    10    13    1
    20    13    14    1
    21    14    15    1
    22    15    16   ar
    23    16    17   ar
    24    17    18   ar
    25    18    21    1
    26    21    22    1
    27    21    23    1
    28    18    19   ar
    29    19    20   ar
    30    10    11    1
    31    11    12    1
    32     5     6   ar
    33    30    31   ar
    34    31    32    1
    35    31    26   ar
    36     6     1   ar
    37    12     7    1
    38    20    15   ar
    39    36    37    1
    40    24    25    1
@<TRIPOS>MOLECULE
*****
 37 40 0 0 0
SMALL
GASTEIGER

@<TRIPOS>ATOM
      1 C         142.0572  137.8098  156.8467 C.ar    1  UNL1        0.2245
      2 N         141.6610  138.6209  155.6488 N.ar    1  UNL1       -0.1912
      3 C         140.6404  139.7116  155.7857 C.ar    1  UNL1        0.2037
      4 N         140.0160  139.9912  157.1206 N.ar    1  UNL1       -0.1912
      5 C         140.4122  139.1801  158.3186 C.ar    1  UNL1        0.2240
      6 N         141.4328  138.0894  158.1817 N.ar    1  UNL1       -0.1806
      7 N         139.7879  139.4597  159.6535 N.pl3   1  UNL1       -0.2779
      8 C         140.6372  139.4775  160.8898 C.3     1  UNL1        0.0961
      9 C         140.0128  139.7571  162.2247 C.3     1  UNL1        0.0511
     10 C         138.5391  140.0190  162.3233 C.3     1  UNL1        0.1191
     11 C         137.6898  140.0013  161.0870 C.3     1  UNL1        0.0511
     12 C         138.3143  139.7216  159.7521 C.3     1  UNL1        0.0961
     13 O         137.9147  140.2986  163.6582 O.3     1  UNL1       -0.3514
     14 C         138.4369  139.6168  164.8880 C.3     1  UNL1        0.1685
     15 C         139.1311  140.4158  165.9510 C.ar    1  UNL1        0.0072
     16 C         139.6408  141.7922  165.6418 C.ar    1  UNL1       -0.0022
     17 C         140.3350  142.5912  166.7046 C.ar    1  UNL1       -0.0045
     18 C         140.5195  142.0137  168.0767 C.ar    1  UNL1       -0.0225
     19 C         140.0097  140.6373  168.3858 C.ar    1  UNL1       -0.0045
     20 C         139.3155  139.8383  167.3230 C.ar    1  UNL1       -0.0022
     21 C         141.2137  142.8127  169.1396 C.3     1  UNL1        0.0224
     22 C         140.4723  143.8927  169.8704 C.3     1  UNL1        0.0047
     23 C         142.6492  142.5317  169.4717 C.3     1  UNL1        0.0047
     24 N         143.0778  136.7191  156.7098 N.pl3   1  UNL1       -0.2826
     25 H         144.0210  136.8972  156.9286 H       1  UNL1        0.1551
     26 C         142.6208  132.7796  156.5638 C.ar    1  UNL1        0.0474
     27 C         141.8283  132.6328  155.2988 C.ar    1  UNL1        0.0144
     28 C         141.4522  133.8482  154.5041 C.ar    1  UNL1        0.0025
     29 C         141.8687  135.2102  154.9744 C.ar    1  UNL1        0.0144
     30 C         142.6613  135.3570  156.2394 C.ar    1  UNL1        0.0476
     31 C         143.0373  134.1416  157.0341 C.ar    1  UNL1        0.0051
     32 C         143.8299  134.2884  158.2992 C.3     1  UNL1        0.0336
     33 C         144.7106  129.7023  157.9470 C.3     1  UNL1        0.0949
     34 C         144.3345  130.9176  157.1523 C.2     1  UNL1        0.2266
     35 O         145.2962  131.4864  156.1513 O.2     1  UNL1       -0.2748
     36 N         142.9969  131.5642  157.3585 N.am    1  UNL1       -0.2841
     37 H         142.3658  131.1910  158.0154 H       1  UNL1        0.1548
@<TRIPOS>BOND
     1    33    34    1
     2    34    35    2
     3    34    36   am
     4    36    26    1
     5    26    27   ar
     6    27    28   ar
     7    28    29   ar
     8    29    30   ar
     9    30    24    1
    10    24     1    1
    11     1     2   ar
    12     2     3   ar
    13     3     4   ar
    14     4     5   ar
    15     5     7    1
    16     7     8    1
    17     8     9    1
    18     9    10    1
    19    10    13    1
    20    13    14    1
    21    14    15    1
    22    15    16   ar
    23    16    17   ar
    24    17    18   ar
    25    18    21    1
    26    21    22    1
    27    21    23    1
    28    18    19   ar
    29    19    20   ar
    30    10    11    1
    31    11    12    1
    32     5     6   ar
    33    30    31   ar
    34    31    32    1
    35    31    26   ar
    36     6     1   ar
    37    12     7    1
    38    20    15   ar
    39    36    37    1
    40    24    25    1
