@<TRIPOS>MOLECULE
*****
 33 36 0 0 0
SMALL
GASTEIGER

@<TRIPOS>ATOM
      1 C         142.1605  140.5680  165.8978 C.ar    1  UNL1        0.1395
      2 C         141.1875  139.5959  165.2992 C.ar    1  UNL1        0.0257
      3 C         139.9453  139.2190  166.0510 C.ar    1  UNL1        0.0509
      4 C         138.9724  138.2469  165.4525 C.ar    1  UNL1        0.1353
      5 N         137.7303  137.8700  166.2042 N.ar    1  UNL1       -0.2089
      6 C         137.4611  138.4653  167.5544 C.ar    1  UNL1        0.2000
      7 N         138.4341  139.4374  168.1530 N.ar    1  UNL1       -0.2238
      8 C         139.6762  139.8143  167.4013 C.ar    1  UNL1        0.0888
      9 C         140.6492  140.7864  167.9998 C.ar    1  UNL1        0.0575
     10 C         141.8913  141.1633  167.2481 C.ar    1  UNL1        0.1571
     11 S         143.4026  140.9449  165.1461 S.O2    1  UNL1        0.0083
     12 O         144.0339  139.6412  165.5355 O.2     1  UNL1       -0.1686
     13 O         142.7713  142.2487  164.7567 O.2     1  UNL1       -0.1686
     14 C         144.3810  142.7697  164.6846 C.3     1  UNL1        0.0240
     15 C         144.6447  141.3219  164.3944 C.3     1  UNL1        0.1152
     16 C         144.9085  139.8741  164.1041 C.3     1  UNL1        0.0240
     17 C         145.8868  141.6989  163.6427 C.3     1  UNL1        0.0240
     18 N         139.2415  137.6516  164.1021 N.pl3   1  UNL1       -0.2978
     19 H         139.6195  136.7454  164.0301 H       1  UNL1        0.1536
     20 C         138.9349  138.4372  162.8616 C.ar    1  UNL1        0.0509
     21 C         138.0412  139.6396  162.9370 C.ar    1  UNL1        0.0153
     22 C         137.7345  140.4251  161.6965 C.ar    1  UNL1        0.0093
     23 C         138.3216  140.0082  160.3805 C.ar    1  UNL1        0.0486
     24 S         138.1993  140.5822  159.0002 S.2     1  UNL1       -0.0645
     25 C         139.0175  139.7346  158.0716 C.ar    1  UNL1        0.1345
     26 N         139.6453  138.6368  158.8782 N.ar    1  UNL1       -0.2362
     27 C         139.2152  138.8059  160.3052 C.ar    1  UNL1        0.0892
     28 C         139.5219  138.0204  161.5457 C.ar    1  UNL1        0.0343
     29 O         142.8643  142.1354  167.8467 O.3     1  UNL1       -0.4714
     30 C         143.1940  142.0628  169.3082 C.3     1  UNL1        0.2370
     31 C         142.5598  143.0246  170.2688 C.3     1  UNL1        0.1847
     32 O         143.4198  143.8986  171.1327 O.3     1  UNL1       -0.3784
     33 H         143.9154  143.3474  171.7583 H       1  UNL1        0.2106
@<TRIPOS>BOND
     1    14    15    1
     2    15    16    1
     3    15    17    1
     4    15    11    1
     5    11    12    2
     6    11    13    2
     7    11     1    1
     8     1     2   ar
     9     2     3   ar
    10     3     4   ar
    11     4    18    1
    12    18    20    1
    13    20    21   ar
    14    21    22   ar
    15    22    23   ar
    16    23    24   ar
    17    24    25   ar
    18    25    26   ar
    19    26    27   ar
    20    27    28   ar
    21     4     5   ar
    22     5     6   ar
    23     6     7   ar
    24     7     8   ar
    25     8     9   ar
    26     9    10   ar
    27    10    29    1
    28    29    30    1
    29    30    31    1
    30    31    32    1
    31    10     1   ar
    32     8     3   ar
    33    28    20   ar
    34    27    23   ar
    35    18    19    1
    36    32    33    1
@<TRIPOS>MOLECULE
*****
 33 36 0 0 0
SMALL
GASTEIGER

@<TRIPOS>ATOM
      1 C         142.4386  140.7891  165.4942 C.ar    1  UNL1        0.1395
      2 C         141.2368  140.1525  166.1270 C.ar    1  UNL1        0.0257
      3 C         140.7318  140.6520  167.4482 C.ar    1  UNL1        0.0509
      4 C         139.5301  140.0154  168.0811 C.ar    1  UNL1        0.1353
      5 N         139.0251  140.5148  169.4022 N.ar    1  UNL1       -0.2089
      6 C         139.7218  141.6509  170.0905 C.ar    1  UNL1        0.2000
      7 N         140.9235  142.2876  169.4577 N.ar    1  UNL1       -0.2238
      8 C         141.4285  141.7881  168.1365 C.ar    1  UNL1        0.0888
      9 C         142.6303  142.4248  167.5037 C.ar    1  UNL1        0.0575
     10 C         143.1353  141.9253  166.1825 C.ar    1  UNL1        0.1571
     11 S         142.9436  140.2897  164.1730 S.O2    1  UNL1        0.0083
     12 O         143.9097  139.3884  164.8831 O.2     1  UNL1       -0.1686
     13 O         141.9774  141.1910  163.4630 O.2     1  UNL1       -0.1686
     14 C         142.0389  139.5253  162.4132 C.3     1  UNL1        0.0240
     15 C         143.4486  139.7902  162.8518 C.3     1  UNL1        0.1152
     16 C         144.8583  140.0551  163.2904 C.3     1  UNL1        0.0240
     17 C         143.9535  139.2908  161.5306 C.3     1  UNL1        0.0240
     18 N         138.8333  138.8792  167.3927 N.pl3   1  UNL1       -0.2978
     19 H         138.4766  138.1284  167.9203 H       1  UNL1        0.1536
     20 C         138.6802  138.8869  165.9006 C.ar    1  UNL1        0.0509
     21 C         139.0673  137.6785  165.1006 C.ar    1  UNL1        0.0153
     22 C         138.9142  137.6862  163.6085 C.ar    1  UNL1        0.0093
     23 C         138.3740  138.9025  162.9163 C.ar    1  UNL1        0.0486
     24 S         138.1130  139.2010  161.4697 S.2     1  UNL1       -0.0645
     25 C         137.5646  140.5940  161.3756 C.ar    1  UNL1        0.1345
     26 N         137.4867  141.1563  162.7640 N.ar    1  UNL1       -0.2362
     27 C         137.9870  140.1108  163.7162 C.ar    1  UNL1        0.0892
     28 C         138.1401  140.1031  165.2084 C.ar    1  UNL1        0.0343
     29 O         144.3370  142.5620  165.5497 O.3     1  UNL1       -0.4714
     30 C         144.2099  143.8926  164.8692 C.3     1  UNL1        0.2370
     31 C         144.1686  143.9684  163.3717 C.3     1  UNL1        0.1847
     32 O         143.7901  145.2528  162.6959 O.3     1  UNL1       -0.3784
     33 H         142.8640  145.4620  162.8945 H       1  UNL1        0.2106
@<TRIPOS>BOND
     1    14    15    1
     2    15    16    1
     3    15    17    1
     4    15    11    1
     5    11    12    2
     6    11    13    2
     7    11     1    1
     8     1     2   ar
     9     2     3   ar
    10     3     4   ar
    11     4    18    1
    12    18    20    1
    13    20    21   ar
    14    21    22   ar
    15    22    23   ar
    16    23    24   ar
    17    24    25   ar
    18    25    26   ar
    19    26    27   ar
    20    27    28   ar
    21     4     5   ar
    22     5     6   ar
    23     6     7   ar
    24     7     8   ar
    25     8     9   ar
    26     9    10   ar
    27    10    29    1
    28    29    30    1
    29    30    31    1
    30    31    32    1
    31    10     1   ar
    32     8     3   ar
    33    28    20   ar
    34    27    23   ar
    35    18    19    1
    36    32    33    1
@<TRIPOS>MOLECULE
*****
 33 36 0 0 0
SMALL
GASTEIGER

@<TRIPOS>ATOM
      1 C         141.8454  138.8577  160.0690 C.ar    1  UNL1        0.1395
      2 C         141.8129  138.2042  158.7192 C.ar    1  UNL1        0.0257
      3 C         142.7699  138.6425  157.6505 C.ar    1  UNL1        0.0509
      4 C         142.7374  137.9890  156.3007 C.ar    1  UNL1        0.1353
      5 N         143.6943  138.4273  155.2320 N.ar    1  UNL1       -0.2089
      6 C         144.6836  139.5191  155.5130 C.ar    1  UNL1        0.2000
      7 N         144.7161  140.1726  156.8628 N.ar    1  UNL1       -0.2238
      8 C         143.7592  139.7344  157.9315 C.ar    1  UNL1        0.0888
      9 C         143.7917  140.3879  159.2813 C.ar    1  UNL1        0.0575
     10 C         142.8348  139.9496  160.3500 C.ar    1  UNL1        0.1571
     11 S         140.8885  138.4194  161.1377 S.O2    1  UNL1        0.0083
     12 O         139.8981  139.4450  160.6716 O.2     1  UNL1       -0.1686
     13 O         141.8789  137.3939  161.6039 O.2     1  UNL1       -0.1686
     14 C         138.7815  138.4718  161.3781 C.3     1  UNL1        0.0240
     15 C         139.9316  137.9811  162.2065 C.3     1  UNL1        0.1152
     16 C         141.0817  137.4903  163.0350 C.3     1  UNL1        0.0240
     17 C         138.9747  137.5428  163.2752 C.3     1  UNL1        0.0240
     18 N         141.7479  136.8971  156.0197 N.pl3   1  UNL1       -0.2978
     19 H         140.8343  137.1231  155.7307 H       1  UNL1        0.1536
     20 C         142.1505  135.4610  156.1791 C.ar    1  UNL1        0.0509
     21 C         141.4018  134.3865  155.4476 C.ar    1  UNL1        0.0153
     22 C         141.8043  132.9504  155.6070 C.ar    1  UNL1        0.0093
     23 C         142.9556  132.5887  156.4979 C.ar    1  UNL1        0.0486
     24 S         143.5774  131.2694  156.8486 S.2     1  UNL1       -0.0645
     25 C         144.7104  131.5285  157.7968 C.ar    1  UNL1        0.1345
     26 N         144.7888  133.0078  158.0322 N.ar    1  UNL1       -0.2362
     27 C         143.7043  133.6631  157.2294 C.ar    1  UNL1        0.0892
     28 C         143.3017  135.0992  157.0700 C.ar    1  UNL1        0.0343
     29 O         142.8673  140.6031  161.6997 O.3     1  UNL1       -0.4714
     30 C         144.1447  140.6391  162.4851 C.3     1  UNL1        0.2370
     31 C         145.0310  141.8475  162.4207 C.3     1  UNL1        0.1847
     32 O         146.3687  141.8336  163.0992 O.3     1  UNL1       -0.3784
     33 H         146.2436  141.7751  164.0593 H       1  UNL1        0.2106
@<TRIPOS>BOND
     1    14    15    1
     2    15    16    1
     3    15    17    1
     4    15    11    1
     5    11    12    2
     6    11    13    2
     7    11     1    1
     8     1     2   ar
     9     2     3   ar
    10     3     4   ar
    11     4    18    1
    12    18    20    1
    13    20    21   ar
    14    21    22   ar
    15    22    23   ar
    16    23    24   ar
    17    24    25   ar
    18    25    26   ar
    19    26    27   ar
    20    27    28   ar
    21     4     5   ar
    22     5     6   ar
    23     6     7   ar
    24     7     8   ar
    25     8     9   ar
    26     9    10   ar
    27    10    29    1
    28    29    30    1
    29    30    31    1
    30    31    32    1
    31    10     1   ar
    32     8     3   ar
    33    28    20   ar
    34    27    23   ar
    35    18    19    1
    36    32    33    1
@<TRIPOS>MOLECULE
*****
 33 36 0 0 0
SMALL
GASTEIGER

@<TRIPOS>ATOM
      1 C         141.5602  142.7598  164.8557 C.ar    1  UNL1        0.1395
      2 C         140.6339  141.8252  165.5759 C.ar    1  UNL1        0.0257
      3 C         141.0643  141.1871  166.8635 C.ar    1  UNL1        0.0509
      4 C         140.1381  140.2526  167.5837 C.ar    1  UNL1        0.1353
      5 N         140.5685  139.6145  168.8712 N.ar    1  UNL1       -0.2089
      6 C         141.9250  139.9109  169.4384 C.ar    1  UNL1        0.2000
      7 N         142.8512  140.8455  168.7182 N.ar    1  UNL1       -0.2238
      8 C         142.4209  141.4836  167.4307 C.ar    1  UNL1        0.0888
      9 C         143.3471  142.4181  166.7105 C.ar    1  UNL1        0.0575
     10 C         142.9168  143.0562  165.4230 C.ar    1  UNL1        0.1571
     11 S         141.1298  143.3978  163.5683 S.O2    1  UNL1        0.0083
     12 O         141.4509  142.1306  162.8329 O.2     1  UNL1       -0.1686
     13 O         140.8088  144.6651  164.3037 O.2     1  UNL1       -0.1686
     14 C         140.9753  145.3916  162.8605 C.3     1  UNL1        0.0240
     15 C         140.6994  144.0360  162.2807 C.3     1  UNL1        0.1152
     16 C         140.4236  142.6804  161.7010 C.3     1  UNL1        0.0240
     17 C         140.2691  144.6742  160.9933 C.3     1  UNL1        0.0240
     18 N         138.7815  139.9561  167.0164 N.pl3   1  UNL1       -0.2978
     19 H         137.9817  140.0381  167.5846 H       1  UNL1        0.1536
     20 C         138.6435  139.5347  165.5834 C.ar    1  UNL1        0.0509
     21 C         139.0962  138.1700  165.1561 C.ar    1  UNL1        0.0153
     22 C         138.9583  137.7486  163.7231 C.ar    1  UNL1        0.0093
     23 C         138.3676  138.6920  162.7175 C.ar    1  UNL1        0.0486
     24 S         138.1075  138.5568  161.2465 S.2     1  UNL1       -0.0645
     25 C         137.4940  139.8380  160.7646 C.ar    1  UNL1        0.1345
     26 N         137.3751  140.7650  161.9379 N.ar    1  UNL1       -0.2362
     27 C         137.9150  140.0567  163.1448 C.ar    1  UNL1        0.0892
     28 C         138.0530  140.4781  164.5778 C.ar    1  UNL1        0.0343
     29 O         143.8430  143.9908  164.7028 O.3     1  UNL1       -0.4714
     30 C         144.5815  143.5232  163.4838 C.3     1  UNL1        0.2370
     31 C         145.0288  142.0952  163.3796 C.3     1  UNL1        0.1847
     32 O         146.4797  141.7770  163.1714 O.3     1  UNL1       -0.3784
     33 H         146.7595  142.0987  162.3001 H       1  UNL1        0.2106
@<TRIPOS>BOND
     1    14    15    1
     2    15    16    1
     3    15    17    1
     4    15    11    1
     5    11    12    2
     6    11    13    2
     7    11     1    1
     8     1     2   ar
     9     2     3   ar
    10     3     4   ar
    11     4    18    1
    12    18    20    1
    13    20    21   ar
    14    21    22   ar
    15    22    23   ar
    16    23    24   ar
    17    24    25   ar
    18    25    26   ar
    19    26    27   ar
    20    27    28   ar
    21     4     5   ar
    22     5     6   ar
    23     6     7   ar
    24     7     8   ar
    25     8     9   ar
    26     9    10   ar
    27    10    29    1
    28    29    30    1
    29    30    31    1
    30    31    32    1
    31    10     1   ar
    32     8     3   ar
    33    28    20   ar
    34    27    23   ar
    35    18    19    1
    36    32    33    1
@<TRIPOS>MOLECULE
*****
 33 36 0 0 0
SMALL
GASTEIGER

@<TRIPOS>ATOM
      1 C         140.6753  142.5305  162.2498 C.ar    1  UNL1        0.1395
      2 C         140.6492  141.1505  162.8371 C.ar    1  UNL1        0.0257
      3 C         139.5915  140.1749  162.4131 C.ar    1  UNL1        0.0509
      4 C         139.5654  138.7949  163.0004 C.ar    1  UNL1        0.1353
      5 N         138.5078  137.8193  162.5764 N.ar    1  UNL1       -0.2089
      6 C         137.4765  138.2237  161.5651 C.ar    1  UNL1        0.2000
      7 N         137.5027  139.6037  160.9778 N.ar    1  UNL1       -0.2238
      8 C         138.5602  140.5793  161.4018 C.ar    1  UNL1        0.0888
      9 C         138.5864  141.9593  160.8145 C.ar    1  UNL1        0.0575
     10 C         139.6439  142.9349  161.2384 C.ar    1  UNL1        0.1571
     11 S         141.7329  143.5061  162.6738 S.O2    1  UNL1        0.0083
     12 O         140.8251  144.0221  163.7507 O.2     1  UNL1       -0.1686
     13 O         142.6406  142.9901  161.5969 O.2     1  UNL1       -0.1686
     14 C         143.8301  143.6603  162.3946 C.3     1  UNL1        0.0240
     15 C         142.7905  144.4817  163.0977 C.3     1  UNL1        0.1152
     16 C         141.7509  145.3032  163.8008 C.3     1  UNL1        0.0240
     17 C         143.8481  145.4573  163.5216 C.3     1  UNL1        0.0240
     18 N         140.5968  138.3905  164.0118 N.pl3   1  UNL1       -0.2978
     19 H         141.3249  137.7797  163.7551 H       1  UNL1        0.1536
     20 C         140.5187  138.9169  165.4142 C.ar    1  UNL1        0.0509
     21 C         139.1829  139.1212  166.0653 C.ar    1  UNL1        0.0153
     22 C         139.1048  139.6476  167.4678 C.ar    1  UNL1        0.0093
     23 C         140.3625  139.9696  168.2191 C.ar    1  UNL1        0.0486
     24 S         140.5974  140.4986  169.6029 S.2     1  UNL1       -0.0645
     25 C         142.0784  140.6211  169.8071 C.ar    1  UNL1        0.1345
     26 N         142.7588  140.1679  168.5494 N.ar    1  UNL1       -0.2362
     27 C         141.6983  139.7652  167.5680 C.ar    1  UNL1        0.0892
     28 C         141.7764  139.2389  166.1655 C.ar    1  UNL1        0.0343
     29 O         139.6701  144.3149  160.6511 O.3     1  UNL1       -0.4714
     30 C         140.0946  144.5157  159.2266 C.3     1  UNL1        0.2370
     31 C         141.4347  145.1163  158.9208 C.3     1  UNL1        0.1847
     32 O         142.6767  144.2859  159.0540 O.3     1  UNL1       -0.3784
     33 H         142.8118  144.0534  159.9860 H       1  UNL1        0.2106
@<TRIPOS>BOND
     1    14    15    1
     2    15    16    1
     3    15    17    1
     4    15    11    1
     5    11    12    2
     6    11    13    2
     7    11     1    1
     8     1     2   ar
     9     2     3   ar
    10     3     4   ar
    11     4    18    1
    12    18    20    1
    13    20    21   ar
    14    21    22   ar
    15    22    23   ar
    16    23    24   ar
    17    24    25   ar
    18    25    26   ar
    19    26    27   ar
    20    27    28   ar
    21     4     5   ar
    22     5     6   ar
    23     6     7   ar
    24     7     8   ar
    25     8     9   ar
    26     9    10   ar
    27    10    29    1
    28    29    30    1
    29    30    31    1
    30    31    32    1
    31    10     1   ar
    32     8     3   ar
    33    28    20   ar
    34    27    23   ar
    35    18    19    1
    36    32    33    1
@<TRIPOS>MOLECULE
*****
 33 36 0 0 0
SMALL
GASTEIGER

@<TRIPOS>ATOM
      1 C         140.8662  141.1217  165.8418 C.ar    1  UNL1        0.1395
      2 C         140.5706  142.2532  164.9025 C.ar    1  UNL1        0.0257
      3 C         141.6563  143.2162  164.5231 C.ar    1  UNL1        0.0509
      4 C         141.3606  144.3476  163.5837 C.ar    1  UNL1        0.1353
      5 N         142.4463  145.3106  163.2043 N.ar    1  UNL1       -0.2089
      6 C         143.8275  145.1422  163.7643 C.ar    1  UNL1        0.2000
      7 N         144.1232  144.0108  164.7037 N.ar    1  UNL1       -0.2238
      8 C         143.0376  143.0478  165.0830 C.ar    1  UNL1        0.0888
      9 C         143.3332  141.9163  166.0224 C.ar    1  UNL1        0.0575
     10 C         142.2476  140.9533  166.4018 C.ar    1  UNL1        0.1571
     11 S         139.7806  140.1587  166.2212 S.O2    1  UNL1        0.0083
     12 O         140.0088  139.3998  164.9477 O.2     1  UNL1       -0.1686
     13 O         139.5524  140.9177  167.4947 O.2     1  UNL1       -0.1686
     14 C         138.7909  139.6496  168.0271 C.3     1  UNL1        0.0240
     15 C         138.6949  139.1957  166.6007 C.3     1  UNL1        0.1152
     16 C         138.5988  138.7419  165.1743 C.3     1  UNL1        0.0240
     17 C         137.6092  138.2328  166.9802 C.3     1  UNL1        0.0240
     18 N         139.9792  144.5161  163.0237 N.pl3   1  UNL1       -0.2978
     19 H         139.2833  144.9641  163.5567 H       1  UNL1        0.1536
     20 C         139.6583  144.0017  161.6517 C.ar    1  UNL1        0.0509
     21 C         138.7567  142.8141  161.4878 C.ar    1  UNL1        0.0153
     22 C         138.4358  142.2998  160.1157 C.ar    1  UNL1        0.0093
     23 C         139.0165  142.9731  158.9076 C.ar    1  UNL1        0.0486
     24 S         138.8805  142.6933  157.4402 S.2     1  UNL1       -0.0645
     25 C         139.6980  143.7080  156.6972 C.ar    1  UNL1        0.1345
     26 N         140.3393  144.6148  157.7054 N.ar    1  UNL1       -0.2362
     27 C         139.9181  144.1606  159.0715 C.ar    1  UNL1        0.0892
     28 C         140.2390  144.6749  160.4435 C.ar    1  UNL1        0.0343
     29 O         142.5432  139.8219  167.3412 O.3     1  UNL1       -0.4714
     30 C         142.7487  140.0940  168.8019 C.3     1  UNL1        0.2370
     31 C         142.2272  139.1292  169.8252 C.3     1  UNL1        0.1847
     32 O         143.1842  138.3182  170.6477 O.3     1  UNL1       -0.3784
     33 H         143.6629  137.7014  170.0721 H       1  UNL1        0.2106
@<TRIPOS>BOND
     1    14    15    1
     2    15    16    1
     3    15    17    1
     4    15    11    1
     5    11    12    2
     6    11    13    2
     7    11     1    1
     8     1     2   ar
     9     2     3   ar
    10     3     4   ar
    11     4    18    1
    12    18    20    1
    13    20    21   ar
    14    21    22   ar
    15    22    23   ar
    16    23    24   ar
    17    24    25   ar
    18    25    26   ar
    19    26    27   ar
    20    27    28   ar
    21     4     5   ar
    22     5     6   ar
    23     6     7   ar
    24     7     8   ar
    25     8     9   ar
    26     9    10   ar
    27    10    29    1
    28    29    30    1
    29    30    31    1
    30    31    32    1
    31    10     1   ar
    32     8     3   ar
    33    28    20   ar
    34    27    23   ar
    35    18    19    1
    36    32    33    1
@<TRIPOS>MOLECULE
*****
 33 36 0 0 0
SMALL
GASTEIGER

@<TRIPOS>ATOM
      1 C         139.1148  142.3898  161.2352 C.ar    1  UNL1        0.1395
      2 C         139.0826  140.8904  161.2064 C.ar    1  UNL1        0.0257
      3 C         139.3327  140.1594  159.9206 C.ar    1  UNL1        0.0509
      4 C         139.3005  138.6601  159.8918 C.ar    1  UNL1        0.1353
      5 N         139.5505  137.9291  158.6061 N.ar    1  UNL1       -0.2089
      6 C         139.8328  138.6975  157.3492 C.ar    1  UNL1        0.2000
      7 N         139.8649  140.1968  157.3780 N.ar    1  UNL1       -0.2238
      8 C         139.6149  140.9278  158.6637 C.ar    1  UNL1        0.0888
      9 C         139.6471  142.4272  158.6925 C.ar    1  UNL1        0.0575
     10 C         139.3970  143.1582  159.9782 C.ar    1  UNL1        0.1571
     11 S         138.8647  143.1208  162.5209 S.O2    1  UNL1        0.0083
     12 O         137.4067  143.2177  162.1822 O.2     1  UNL1       -0.1686
     13 O         140.3228  143.0238  162.8596 O.2     1  UNL1       -0.1686
     14 C         139.5598  144.9337  163.3753 C.3     1  UNL1        0.0240
     15 C         138.6147  143.8518  163.8067 C.3     1  UNL1        0.1152
     16 C         137.6697  142.7698  164.2381 C.3     1  UNL1        0.0240
     17 C         138.3648  144.5828  165.0924 C.3     1  UNL1        0.0240
     18 N         139.0182  137.8917  161.1488 N.pl3   1  UNL1       -0.2978
     19 H         138.2290  137.3055  161.2007 H       1  UNL1        0.1536
     20 C         139.9385  138.0165  162.3267 C.ar    1  UNL1        0.0509
     21 C         139.4209  137.7677  163.7125 C.ar    1  UNL1        0.0153
     22 C         140.3412  137.8925  164.8904 C.ar    1  UNL1        0.0093
     23 C         141.7791  138.2660  164.6826 C.ar    1  UNL1        0.0486
     24 S         142.9139  138.4628  165.6435 S.2     1  UNL1       -0.0645
     25 C         144.1328  138.8331  164.8516 C.ar    1  UNL1        0.1345
     26 N         143.7513  138.8652  163.4013 N.ar    1  UNL1       -0.2362
     27 C         142.2966  138.5147  163.2968 C.ar    1  UNL1        0.0892
     28 C         141.3763  138.3899  162.1189 C.ar    1  UNL1        0.0343
     29 O         139.4292  144.6576  160.0070 O.3     1  UNL1       -0.4714
     30 C         140.7431  145.3804  159.9712 C.3     1  UNL1        0.2370
     31 C         142.0101  144.6502  160.3051 C.3     1  UNL1        0.1847
     32 O         142.6379  144.8172  161.6571 O.3     1  UNL1       -0.3784
     33 H         142.9455  145.7314  161.7601 H       1  UNL1        0.2106
@<TRIPOS>BOND
     1    14    15    1
     2    15    16    1
     3    15    17    1
     4    15    11    1
     5    11    12    2
     6    11    13    2
     7    11     1    1
     8     1     2   ar
     9     2     3   ar
    10     3     4   ar
    11     4    18    1
    12    18    20    1
    13    20    21   ar
    14    21    22   ar
    15    22    23   ar
    16    23    24   ar
    17    24    25   ar
    18    25    26   ar
    19    26    27   ar
    20    27    28   ar
    21     4     5   ar
    22     5     6   ar
    23     6     7   ar
    24     7     8   ar
    25     8     9   ar
    26     9    10   ar
    27    10    29    1
    28    29    30    1
    29    30    31    1
    30    31    32    1
    31    10     1   ar
    32     8     3   ar
    33    28    20   ar
    34    27    23   ar
    35    18    19    1
    36    32    33    1
@<TRIPOS>MOLECULE
*****
 33 36 0 0 0
SMALL
GASTEIGER

@<TRIPOS>ATOM
      1 C         141.2307  143.0072  163.7411 C.ar    1  UNL1        0.1395
      2 C         142.2380  141.9014  163.8529 C.ar    1  UNL1        0.0257
      3 C         142.3222  141.0879  165.1104 C.ar    1  UNL1        0.0509
      4 C         143.3294  139.9820  165.2222 C.ar    1  UNL1        0.1353
      5 N         143.4137  139.1686  166.4797 N.ar    1  UNL1       -0.2089
      6 C         142.4906  139.4610  167.6253 C.ar    1  UNL1        0.2000
      7 N         141.4834  140.5669  167.5135 N.ar    1  UNL1       -0.2238
      8 C         141.3992  141.3803  166.2560 C.ar    1  UNL1        0.0888
      9 C         140.3919  142.4862  166.1442 C.ar    1  UNL1        0.0575
     10 C         140.3077  143.2996  164.8868 C.ar    1  UNL1        0.1571
     11 S         141.1465  143.8207  162.4837 S.O2    1  UNL1        0.0083
     12 O         140.4395  142.6888  161.7988 O.2     1  UNL1       -0.1686
     13 O         141.8535  144.9525  163.1685 O.2     1  UNL1       -0.1686
     14 C         141.7692  143.5455  160.4746 C.3     1  UNL1        0.0240
     15 C         141.0623  144.6342  161.2262 C.3     1  UNL1        0.1152
     16 C         140.3554  145.7229  161.9778 C.3     1  UNL1        0.0240
     17 C         140.9781  145.4477  159.9688 C.3     1  UNL1        0.0240
     18 N         144.2525  139.6896  164.0765 N.pl3   1  UNL1       -0.2978
     19 H         145.2250  139.7942  164.1888 H       1  UNL1        0.1536
     20 C         143.6938  139.2379  162.7598 C.ar    1  UNL1        0.0509
     21 C         142.6077  138.2040  162.7209 C.ar    1  UNL1        0.0153
     22 C         142.0490  137.7524  161.4041 C.ar    1  UNL1        0.0093
     23 C         142.5765  138.3346  160.1262 C.ar    1  UNL1        0.0486
     24 S         142.2236  138.0867  158.6896 S.2     1  UNL1       -0.0645
     25 C         143.0917  138.9674  157.8406 C.ar    1  UNL1        0.1345
     26 N         143.9810  139.7595  158.7525 N.ar    1  UNL1       -0.2362
     27 C         143.6625  139.3684  160.1652 C.ar    1  UNL1        0.0892
     28 C         144.2212  139.8201  161.4819 C.ar    1  UNL1        0.0343
     29 O         139.3004  144.4055  164.7750 O.3     1  UNL1       -0.4714
     30 C         137.8651  144.0856  164.4796 C.3     1  UNL1        0.2370
     31 C         137.5242  143.0459  163.4535 C.3     1  UNL1        0.1847
     32 O         137.4806  143.4128  161.9998 O.3     1  UNL1       -0.3784
     33 H         136.7545  144.0373  161.8455 H       1  UNL1        0.2106
@<TRIPOS>BOND
     1    14    15    1
     2    15    16    1
     3    15    17    1
     4    15    11    1
     5    11    12    2
     6    11    13    2
     7    11     1    1
     8     1     2   ar
     9     2     3   ar
    10     3     4   ar
    11     4    18    1
    12    18    20    1
    13    20    21   ar
    14    21    22   ar
    15    22    23   ar
    16    23    24   ar
    17    24    25   ar
    18    25    26   ar
    19    26    27   ar
    20    27    28   ar
    21     4     5   ar
    22     5     6   ar
    23     6     7   ar
    24     7     8   ar
    25     8     9   ar
    26     9    10   ar
    27    10    29    1
    28    29    30    1
    29    30    31    1
    30    31    32    1
    31    10     1   ar
    32     8     3   ar
    33    28    20   ar
    34    27    23   ar
    35    18    19    1
    36    32    33    1
@<TRIPOS>MOLECULE
*****
 33 36 0 0 0
SMALL
GASTEIGER

@<TRIPOS>ATOM
      1 C         139.9178  141.5807  165.0318 C.ar    1  UNL1        0.1395
      2 C         140.8754  140.5979  165.6378 C.ar    1  UNL1        0.0257
      3 C         141.5073  140.8884  166.9668 C.ar    1  UNL1        0.0509
      4 C         142.4648  139.9056  167.5728 C.ar    1  UNL1        0.1353
      5 N         143.0967  140.1960  168.9018 N.ar    1  UNL1       -0.2089
      6 C         142.7711  141.4693  169.6249 C.ar    1  UNL1        0.2000
      7 N         141.8135  142.4520  169.0189 N.ar    1  UNL1       -0.2238
      8 C         141.1816  142.1616  167.6899 C.ar    1  UNL1        0.0888
      9 C         140.2240  143.1444  167.0839 C.ar    1  UNL1        0.0575
     10 C         139.5921  142.8540  165.7549 C.ar    1  UNL1        0.1571
     11 S         139.2859  141.2902  163.7028 S.O2    1  UNL1        0.0083
     12 O         140.4887  141.8556  163.0074 O.2     1  UNL1       -0.1686
     13 O         138.0831  140.7249  164.3982 O.2     1  UNL1       -0.1686
     14 C         137.3145  141.3881  162.9258 C.3     1  UNL1        0.0240
     15 C         138.6539  140.9998  162.3737 C.3     1  UNL1        0.1152
     16 C         139.9934  140.6114  161.8216 C.3     1  UNL1        0.0240
     17 C         138.0220  140.7093  161.0447 C.3     1  UNL1        0.0240
     18 N         142.7905  138.6323  166.8497 N.pl3   1  UNL1       -0.2978
     19 H         142.7939  137.7767  167.3367 H       1  UNL1        0.1536
     20 C         143.1109  138.6628  165.3847 C.ar    1  UNL1        0.0509
     21 C         144.3448  139.3655  164.9012 C.ar    1  UNL1        0.0153
     22 C         144.6652  139.3960  163.4361 C.ar    1  UNL1        0.0093
     23 C         143.7517  138.7236  162.4545 C.ar    1  UNL1        0.0486
     24 S         143.8073  138.5883  160.9617 S.2     1  UNL1       -0.0645
     25 C         142.6078  137.8019  160.5225 C.ar    1  UNL1        0.1345
     26 N         141.8109  137.4512  161.7439 N.ar    1  UNL1       -0.2362
     27 C         142.5178  138.0209  162.9380 C.ar    1  UNL1        0.0892
     28 C         142.1974  137.9904  164.4031 C.ar    1  UNL1        0.0343
     29 O         138.6346  143.8367  165.1489 O.3     1  UNL1       -0.4714
     30 C         139.1423  144.9133  164.2361 C.3     1  UNL1        0.2370
     31 C         138.7268  144.9322  162.7949 C.3     1  UNL1        0.1847
     32 O         139.6327  144.3595  161.7456 O.3     1  UNL1       -0.3784
     33 H         140.4401  144.8940  161.6887 H       1  UNL1        0.2106
@<TRIPOS>BOND
     1    14    15    1
     2    15    16    1
     3    15    17    1
     4    15    11    1
     5    11    12    2
     6    11    13    2
     7    11     1    1
     8     1     2   ar
     9     2     3   ar
    10     3     4   ar
    11     4    18    1
    12    18    20    1
    13    20    21   ar
    14    21    22   ar
    15    22    23   ar
    16    23    24   ar
    17    24    25   ar
    18    25    26   ar
    19    26    27   ar
    20    27    28   ar
    21     4     5   ar
    22     5     6   ar
    23     6     7   ar
    24     7     8   ar
    25     8     9   ar
    26     9    10   ar
    27    10    29    1
    28    29    30    1
    29    30    31    1
    30    31    32    1
    31    10     1   ar
    32     8     3   ar
    33    28    20   ar
    34    27    23   ar
    35    18    19    1
    36    32    33    1
