@<TRIPOS>MOLECULE
*****
 40 44 0 0 0
SMALL
GASTEIGER

@<TRIPOS>ATOM
      1 C         143.7880  139.9179  157.0366 C.3     1  UNL1        0.1534
      2 C         143.1285  140.3054  158.3269 C.3     1  UNL1        0.0469
      3 C         142.3019  139.1434  158.7924 C.3     1  UNL1        0.0798
      4 C         142.4507  138.0377  157.7898 C.3     1  UNL1        0.1101
      5 N         143.3691  138.5163  156.7047 N.am    1  UNL1       -0.2680
      6 C         143.7940  137.7312  155.4992 C.2     1  UNL1        0.2495
      7 O         144.7222  138.3449  154.4934 O.2     1  UNL1       -0.2699
      8 N         141.4723  139.0956  160.0412 N.3     1  UNL1       -0.2670
      9 C         140.3838  140.1047  160.2576 C.3     1  UNL1        0.0773
     10 C         139.5543  140.0568  161.5064 C.3     1  UNL1        0.0497
     11 C         139.8133  138.9998  162.5388 C.ar    1  UNL1        0.0473
     12 C         140.9018  137.9908  162.3224 C.ar    1  UNL1        0.0774
     13 N         141.1607  136.9338  163.3548 N.ar    1  UNL1       -0.2271
     14 C         140.3312  136.8859  164.6036 C.ar    1  UNL1        0.2012
     15 N         139.2426  137.8951  164.8200 N.ar    1  UNL1       -0.1896
     16 C         138.9837  138.9520  163.7877 C.ar    1  UNL1        0.2233
     17 C         141.7313  138.0386  161.0736 C.3     1  UNL1        0.1185
     18 O         137.8952  139.9611  164.0041 O.3     1  UNL1       -0.4604
     19 C         138.1777  141.2148  164.7777 C.3     1  UNL1        0.2071
     20 C         137.7343  142.5434  164.2407 C.3     1  UNL1        0.0474
     21 C         138.4291  143.7987  164.6781 C.3     1  UNL1        0.0037
     22 C         138.5095  144.9901  165.5860 C.3     1  UNL1        0.0001
     23 C         139.5520  144.7818  164.5279 C.3     1  UNL1        0.0001
     24 C         143.2907  136.3323  155.2996 C.ar    1  UNL1        0.0566
     25 C         142.3188  136.0353  154.1964 C.ar    1  UNL1        0.0044
     26 C         141.8155  134.6364  153.9968 C.ar    1  UNL1        0.0002
     27 C         142.2841  133.5346  154.9003 C.ar    1  UNL1        0.0274
     28 C         143.2560  133.8317  156.0036 C.ar    1  UNL1        0.1361
     29 C         143.7593  135.2305  156.2032 C.ar    1  UNL1        0.0411
     30 C         141.7807  132.1357  154.7007 C.3     1  UNL1        0.0952
     31 N         142.7491  130.9919  154.6387 N.3     1  UNL1       -0.3174
     32 H         143.3315  131.0842  153.8064 H       1  UNL1        0.1192
     33 H         142.2343  130.1123  154.5976 H       1  UNL1        0.1192
     34 O         143.7246  132.7300  156.9071 O.3     1  UNL1       -0.4717
     35 C         144.7540  133.0112  157.9613 C.3     1  UNL1        0.2525
     36 C         147.0838  141.3139  155.3224 C.3     1  UNL1        0.1107
     37 N         146.1664  140.4514  156.1376 N.am    1  UNL1       -0.3013
     38 C         144.7053  140.7804  156.2215 C.2     1  UNL1        0.2407
     39 O         144.1616  141.9719  155.4903 O.2     1  UNL1       -0.2733
     40 H         146.5233  139.6694  156.6175 H       1  UNL1        0.1495
@<TRIPOS>BOND
     1    36    37    1
     2    37    38   am
     3    38    39    2
     4     1    38    1
     5     1     2    1
     6     2     3    1
     7     3     8    1
     8     8     9    1
     9     9    10    1
    10    10    11    1
    11    11    12   ar
    12    12    13   ar
    13    13    14   ar
    14    14    15   ar
    15    15    16   ar
    16    16    18    1
    17    18    19    1
    18    19    20    1
    19    20    21    1
    20    21    22    1
    21    22    23    1
    22    12    17    1
    23     3     4    1
    24     4     5    1
    25     5     6   am
    26     6     7    2
    27     6    24    1
    28    24    25   ar
    29    25    26   ar
    30    26    27   ar
    31    27    30    1
    32    30    31    1
    33    27    28   ar
    34    28    34    1
    35    34    35    1
    36    28    29   ar
    37     5     1    1
    38    29    24   ar
    39    17     8    1
    40    16    11   ar
    41    23    21    1
    42    37    40    1
    43    31    32    1
    44    31    33    1
@<TRIPOS>MOLECULE
*****
 40 44 0 0 0
SMALL
GASTEIGER

@<TRIPOS>ATOM
      1 C         143.8288  139.7719  157.5244 C.3     1  UNL1        0.1534
      2 C         143.5121  140.0979  158.9538 C.3     1  UNL1        0.0469
      3 C         142.7971  138.9218  159.5501 C.3     1  UNL1        0.0798
      4 C         142.6720  137.8688  158.4892 C.3     1  UNL1        0.1101
      5 N         143.3096  138.3942  157.2372 N.am    1  UNL1       -0.2680
      6 C         143.4103  137.6691  155.9279 C.2     1  UNL1        0.2495
      7 O         144.0798  138.3251  154.7569 O.2     1  UNL1       -0.2699
      8 N         142.2954  138.8171  160.9599 N.3     1  UNL1       -0.2670
      9 C         140.9664  138.1795  161.2375 C.3     1  UNL1        0.0773
     10 C         140.4647  138.0748  162.6473 C.3     1  UNL1        0.0497
     11 C         141.2920  138.6077  163.7793 C.ar    1  UNL1        0.0473
     12 C         142.6210  139.2453  163.5016 C.ar    1  UNL1        0.0774
     13 N         143.4483  139.7783  164.6337 N.ar    1  UNL1       -0.2271
     14 C         142.9466  139.6736  166.0434 C.ar    1  UNL1        0.2012
     15 N         141.6176  139.0359  166.3211 N.ar    1  UNL1       -0.1896
     16 C         140.7903  138.5030  165.1891 C.ar    1  UNL1        0.2233
     17 C         143.1227  139.3500  162.0919 C.3     1  UNL1        0.1185
     18 O         139.4613  137.8653  165.4667 O.3     1  UNL1       -0.4604
     19 C         138.2461  138.7214  165.6685 C.3     1  UNL1        0.2071
     20 C         138.3068  140.1910  165.3743 C.3     1  UNL1        0.0474
     21 C         137.8966  140.7033  164.0255 C.3     1  UNL1        0.0037
     22 C         137.7038  140.4803  162.5548 C.3     1  UNL1        0.0001
     23 C         137.3790  141.8138  163.1601 C.3     1  UNL1        0.0001
     24 C         142.8415  136.2881  155.7897 C.ar    1  UNL1        0.0566
     25 C         141.7020  136.0372  154.8470 C.ar    1  UNL1        0.0044
     26 C         141.1332  134.6562  154.7088 C.ar    1  UNL1        0.0002
     27 C         141.7039  133.5260  155.5132 C.ar    1  UNL1        0.0274
     28 C         142.8434  133.7769  156.4559 C.ar    1  UNL1        0.1361
     29 C         143.4122  135.1579  156.5941 C.ar    1  UNL1        0.0411
     30 C         141.1350  132.1449  155.3750 C.3     1  UNL1        0.0952
     31 N         142.0497  130.9565  155.3455 N.3     1  UNL1       -0.3174
     32 H         142.6235  130.9899  154.5028 H       1  UNL1        0.1192
     33 H         141.4951  130.1004  155.3454 H       1  UNL1        0.1192
     34 O         143.4140  132.6468  157.2602 O.3     1  UNL1       -0.4717
     35 C         144.7714  132.7809  157.8843 C.3     1  UNL1        0.2525
     36 C         146.6655  141.2607  155.1820 C.3     1  UNL1        0.1107
     37 N         145.9544  140.3662  156.1537 N.am    1  UNL1       -0.3013
     38 C         144.5399  140.6664  156.5527 C.2     1  UNL1        0.2407
     39 O         143.8365  141.8611  155.9800 O.2     1  UNL1       -0.2733
     40 H         146.4160  139.5821  156.5296 H       1  UNL1        0.1495
@<TRIPOS>BOND
     1    36    37    1
     2    37    38   am
     3    38    39    2
     4     1    38    1
     5     1     2    1
     6     2     3    1
     7     3     8    1
     8     8     9    1
     9     9    10    1
    10    10    11    1
    11    11    12   ar
    12    12    13   ar
    13    13    14   ar
    14    14    15   ar
    15    15    16   ar
    16    16    18    1
    17    18    19    1
    18    19    20    1
    19    20    21    1
    20    21    22    1
    21    22    23    1
    22    12    17    1
    23     3     4    1
    24     4     5    1
    25     5     6   am
    26     6     7    2
    27     6    24    1
    28    24    25   ar
    29    25    26   ar
    30    26    27   ar
    31    27    30    1
    32    30    31    1
    33    27    28   ar
    34    28    34    1
    35    34    35    1
    36    28    29   ar
    37     5     1    1
    38    29    24   ar
    39    17     8    1
    40    16    11   ar
    41    23    21    1
    42    37    40    1
    43    31    32    1
    44    31    33    1
@<TRIPOS>MOLECULE
*****
 40 44 0 0 0
SMALL
GASTEIGER

@<TRIPOS>ATOM
      1 C         143.5441  140.0132  157.1272 C.3     1  UNL1        0.1534
      2 C         142.8480  140.5144  158.3578 C.3     1  UNL1        0.0469
      3 C         141.9709  139.4131  158.8753 C.3     1  UNL1        0.0798
      4 C         142.1249  138.2312  157.9646 C.3     1  UNL1        0.1101
      5 N         143.0972  138.6020  156.8843 N.am    1  UNL1       -0.2680
      6 C         143.5441  137.7171  155.7586 C.2     1  UNL1        0.2495
      7 O         144.5271  138.2283  154.7475 O.2     1  UNL1       -0.2699
      8 N         141.0938  139.4817  160.0903 N.3     1  UNL1       -0.2670
      9 C         141.1189  138.3702  161.0972 C.3     1  UNL1        0.0773
     10 C         140.2418  138.4389  162.3120 C.3     1  UNL1        0.0497
     11 C         139.3396  139.6191  162.5200 C.ar    1  UNL1        0.0473
     12 C         139.3145  140.7306  161.5131 C.ar    1  UNL1        0.0774
     13 N         138.4123  141.9107  161.7211 N.ar    1  UNL1       -0.2271
     14 C         137.5352  141.9794  162.9359 C.ar    1  UNL1        0.2012
     15 N         137.5603  140.8679  163.9429 N.ar    1  UNL1       -0.1896
     16 C         138.4625  139.6877  163.7349 C.ar    1  UNL1        0.2233
     17 C         140.1916  140.6619  160.2982 C.3     1  UNL1        0.1185
     18 O         138.4876  138.5762  164.7419 O.3     1  UNL1       -0.4604
     19 C         138.5119  138.8927  166.2079 C.3     1  UNL1        0.2071
     20 C         139.6087  139.7457  166.7730 C.3     1  UNL1        0.0474
     21 C         141.0390  139.4536  166.4284 C.3     1  UNL1        0.0037
     22 C         142.0520  138.7549  165.5707 C.3     1  UNL1        0.0001
     23 C         142.5036  139.6465  166.6891 C.3     1  UNL1        0.0001
     24 C         143.0079  136.3209  155.6439 C.ar    1  UNL1        0.0566
     25 C         142.0286  135.9802  154.5600 C.ar    1  UNL1        0.0044
     26 C         141.4925  134.5840  154.4454 C.ar    1  UNL1        0.0002
     27 C         141.9357  133.5285  155.4146 C.ar    1  UNL1        0.0274
     28 C         142.9150  133.8691  156.4985 C.ar    1  UNL1        0.1361
     29 C         143.4512  135.2653  156.6132 C.ar    1  UNL1        0.0411
     30 C         141.3995  132.1322  155.2999 C.3     1  UNL1        0.0952
     31 N         142.3144  130.9593  155.4927 N.3     1  UNL1       -0.3174
     32 H         143.0045  130.9393  154.7419 H       1  UNL1        0.1192
     33 H         141.7697  130.0970  155.4770 H       1  UNL1        0.1192
     34 O         143.3582  132.8136  157.4677 O.3     1  UNL1       -0.4717
     35 C         144.8060  132.7008  157.8435 C.3     1  UNL1        0.2525
     36 C         146.9433  141.1952  155.4545 C.3     1  UNL1        0.1107
     37 N         145.9711  140.4213  156.2946 N.am    1  UNL1       -0.3013
     38 C         144.5164  140.7871  156.2872 C.2     1  UNL1        0.2407
     39 O         144.0339  141.9268  155.4397 O.2     1  UNL1       -0.2733
     40 H         146.2877  139.6732  156.8508 H       1  UNL1        0.1495
@<TRIPOS>BOND
     1    36    37    1
     2    37    38   am
     3    38    39    2
     4     1    38    1
     5     1     2    1
     6     2     3    1
     7     3     8    1
     8     8     9    1
     9     9    10    1
    10    10    11    1
    11    11    12   ar
    12    12    13   ar
    13    13    14   ar
    14    14    15   ar
    15    15    16   ar
    16    16    18    1
    17    18    19    1
    18    19    20    1
    19    20    21    1
    20    21    22    1
    21    22    23    1
    22    12    17    1
    23     3     4    1
    24     4     5    1
    25     5     6   am
    26     6     7    2
    27     6    24    1
    28    24    25   ar
    29    25    26   ar
    30    26    27   ar
    31    27    30    1
    32    30    31    1
    33    27    28   ar
    34    28    34    1
    35    34    35    1
    36    28    29   ar
    37     5     1    1
    38    29    24   ar
    39    17     8    1
    40    16    11   ar
    41    23    21    1
    42    37    40    1
    43    31    32    1
    44    31    33    1
@<TRIPOS>MOLECULE
*****
 40 44 0 0 0
SMALL
GASTEIGER

@<TRIPOS>ATOM
      1 C         144.5351  140.8137  156.9467 C.3     1  UNL1        0.1534
      2 C         143.9600  141.1894  158.2801 C.3     1  UNL1        0.0469
      3 C         143.0168  140.1017  158.7013 C.3     1  UNL1        0.0798
      4 C         143.0091  139.0536  157.6282 C.3     1  UNL1        0.1101
      5 N         143.9475  139.4936  156.5438 N.am    1  UNL1       -0.2680
      6 C         144.2458  138.7451  155.2786 C.2     1  UNL1        0.2495
      7 O         145.2117  139.3128  154.2813 O.2     1  UNL1       -0.2699
      8 N         142.2211  140.0679  159.9725 N.3     1  UNL1       -0.2670
      9 C         142.2686  141.2313  160.9181 C.3     1  UNL1        0.0773
     10 C         141.4729  141.1975  162.1892 C.3     1  UNL1        0.0497
     11 C         140.6297  140.0003  162.5146 C.ar    1  UNL1        0.0473
     12 C         140.5823  138.8369  161.5690 C.ar    1  UNL1        0.0774
     13 N         139.7391  137.6398  161.8944 N.ar    1  UNL1       -0.2271
     14 C         138.9434  137.6060  163.1655 C.ar    1  UNL1        0.2012
     15 N         138.9909  138.7694  164.1112 N.ar    1  UNL1       -0.1896
     16 C         139.8340  139.9665  163.7858 C.ar    1  UNL1        0.2233
     17 C         141.3780  138.8707  160.2979 C.3     1  UNL1        0.1185
     18 O         139.8815  141.1299  164.7314 O.3     1  UNL1       -0.4604
     19 C         140.8454  141.1234  165.8807 C.3     1  UNL1        0.2071
     20 C         141.2950  139.8217  166.4752 C.3     1  UNL1        0.0474
     21 C         142.6058  139.2213  166.0615 C.3     1  UNL1        0.0037
     22 C         143.7796  139.1816  165.1285 C.3     1  UNL1        0.0001
     23 C         143.7023  138.2209  166.2779 C.3     1  UNL1        0.0001
     24 C         143.5782  137.4289  155.0107 C.ar    1  UNL1        0.0566
     25 C         142.3718  137.3671  154.1215 C.ar    1  UNL1        0.0044
     26 C         141.7042  136.0508  153.8536 C.ar    1  UNL1        0.0002
     27 C         142.2430  134.7964  154.4750 C.ar    1  UNL1        0.0274
     28 C         143.4494  134.8582  155.3642 C.ar    1  UNL1        0.1361
     29 C         144.1170  136.1744  155.6321 C.ar    1  UNL1        0.0411
     30 C         141.5753  133.4801  154.2071 C.3     1  UNL1        0.0952
     31 N         141.2012  132.5827  155.3493 N.3     1  UNL1       -0.3174
     32 H         142.0472  132.2534  155.8142 H       1  UNL1        0.1192
     33 H         140.6747  131.7838  154.9957 H       1  UNL1        0.1192
     34 O         143.9881  133.6038  155.9856 O.3     1  UNL1       -0.4717
     35 C         144.0707  133.4819  157.4783 C.3     1  UNL1        0.2525
     36 C         147.9370  141.9599  155.2545 C.3     1  UNL1        0.1107
     37 N         146.9478  141.1568  156.0460 N.am    1  UNL1       -0.3013
     38 C         145.5243  141.6168  156.1552 C.2     1  UNL1        0.2407
     39 O         145.0899  142.8801  155.4730 O.2     1  UNL1       -0.2733
     40 H         147.2329  140.3277  156.4938 H       1  UNL1        0.1495
@<TRIPOS>BOND
     1    36    37    1
     2    37    38   am
     3    38    39    2
     4     1    38    1
     5     1     2    1
     6     2     3    1
     7     3     8    1
     8     8     9    1
     9     9    10    1
    10    10    11    1
    11    11    12   ar
    12    12    13   ar
    13    13    14   ar
    14    14    15   ar
    15    15    16   ar
    16    16    18    1
    17    18    19    1
    18    19    20    1
    19    20    21    1
    20    21    22    1
    21    22    23    1
    22    12    17    1
    23     3     4    1
    24     4     5    1
    25     5     6   am
    26     6     7    2
    27     6    24    1
    28    24    25   ar
    29    25    26   ar
    30    26    27   ar
    31    27    30    1
    32    30    31    1
    33    27    28   ar
    34    28    34    1
    35    34    35    1
    36    28    29   ar
    37     5     1    1
    38    29    24   ar
    39    17     8    1
    40    16    11   ar
    41    23    21    1
    42    37    40    1
    43    31    32    1
    44    31    33    1
@<TRIPOS>MOLECULE
*****
 40 44 0 0 0
SMALL
GASTEIGER

@<TRIPOS>ATOM
      1 C         143.4418  138.4646  156.8109 C.3     1  UNL1        0.1534
      2 C         143.3560  137.2086  155.9954 C.3     1  UNL1        0.0469
      3 C         142.7723  136.1322  156.8619 C.3     1  UNL1        0.0798
      4 C         142.4974  136.7230  158.2129 C.3     1  UNL1        0.1101
      5 N         142.9111  138.1644  158.1814 N.am    1  UNL1       -0.2680
      6 C         142.8117  139.1354  159.3205 C.2     1  UNL1        0.2495
      7 O         143.2675  140.5530  159.1396 O.2     1  UNL1       -0.2699
      8 N         142.5097  134.7140  156.4496 N.3     1  UNL1       -0.2670
      9 C         141.5242  134.4207  155.3575 C.3     1  UNL1        0.0773
     10 C         141.2616  133.0026  154.9454 C.3     1  UNL1        0.0497
     11 C         141.9845  131.8778  155.6253 C.ar    1  UNL1        0.0473
     12 C         142.9700  132.1711  156.7174 C.ar    1  UNL1        0.0774
     13 N         143.6929  131.0463  157.3973 N.ar    1  UNL1       -0.2271
     14 C         143.4303  129.6282  156.9851 C.ar    1  UNL1        0.2012
     15 N         142.4448  129.3348  155.8930 N.ar    1  UNL1       -0.1896
     16 C         141.7219  130.4596  155.2131 C.ar    1  UNL1        0.2233
     17 C         143.2326  133.5892  157.1296 C.3     1  UNL1        0.1185
     18 O         140.7364  130.1663  154.1210 O.3     1  UNL1       -0.4604
     19 C         140.9278  128.9673  153.2401 C.3     1  UNL1        0.2071
     20 C         139.9613  127.8224  153.3112 C.3     1  UNL1        0.0474
     21 C         139.3708  127.4203  154.6301 C.3     1  UNL1        0.0037
     22 C         139.4009  127.4483  156.1295 C.3     1  UNL1        0.0001
     23 C         138.3178  126.6956  155.4150 C.3     1  UNL1        0.0001
     24 C         142.2566  138.6887  160.6404 C.ar    1  UNL1        0.0566
     25 C         143.1723  138.4961  161.8127 C.ar    1  UNL1        0.0044
     26 C         142.6171  138.0495  163.1326 C.ar    1  UNL1        0.0002
     27 C         141.1462  137.7954  163.2803 C.ar    1  UNL1        0.0274
     28 C         140.2304  137.9880  162.1080 C.ar    1  UNL1        0.1361
     29 C         140.7856  138.4346  160.7881 C.ar    1  UNL1        0.0411
     30 C         140.5910  137.3487  164.6003 C.3     1  UNL1        0.0952
     31 N         139.2408  137.8261  165.0463 N.3     1  UNL1       -0.3174
     32 H         139.2719  138.8330  165.2061 H       1  UNL1        0.1192
     33 H         138.9813  137.3523  165.9115 H       1  UNL1        0.1192
     34 O         138.7596  137.7339  162.2557 O.3     1  UNL1       -0.4717
     35 C         137.7697  138.6872  161.6545 C.3     1  UNL1        0.2525
     36 C         145.8312  141.5971  156.3330 C.3     1  UNL1        0.1107
     37 N         145.3068  140.2734  156.8051 N.am    1  UNL1       -0.3013
     38 C         143.9662  139.7882  156.3388 C.2     1  UNL1        0.2407
     39 O         143.1500  140.6267  155.4003 O.2     1  UNL1       -0.2733
     40 H         145.8425  139.7230  157.4210 H       1  UNL1        0.1495
@<TRIPOS>BOND
     1    36    37    1
     2    37    38   am
     3    38    39    2
     4     1    38    1
     5     1     2    1
     6     2     3    1
     7     3     8    1
     8     8     9    1
     9     9    10    1
    10    10    11    1
    11    11    12   ar
    12    12    13   ar
    13    13    14   ar
    14    14    15   ar
    15    15    16   ar
    16    16    18    1
    17    18    19    1
    18    19    20    1
    19    20    21    1
    20    21    22    1
    21    22    23    1
    22    12    17    1
    23     3     4    1
    24     4     5    1
    25     5     6   am
    26     6     7    2
    27     6    24    1
    28    24    25   ar
    29    25    26   ar
    30    26    27   ar
    31    27    30    1
    32    30    31    1
    33    27    28   ar
    34    28    34    1
    35    34    35    1
    36    28    29   ar
    37     5     1    1
    38    29    24   ar
    39    17     8    1
    40    16    11   ar
    41    23    21    1
    42    37    40    1
    43    31    32    1
    44    31    33    1
@<TRIPOS>MOLECULE
*****
 40 44 0 0 0
SMALL
GASTEIGER

@<TRIPOS>ATOM
      1 C         144.4358  141.4922  156.3466 C.3     1  UNL1        0.1534
      2 C         143.5853  142.1749  157.3764 C.3     1  UNL1        0.0469
      3 C         142.4588  141.2510  157.7336 C.3     1  UNL1        0.0798
      4 C         142.6131  139.9974  156.9246 C.3     1  UNL1        0.1101
      5 N         143.8350  140.1464  156.0674 N.am    1  UNL1       -0.2680
      6 C         144.3633  139.1284  155.1007 C.2     1  UNL1        0.2495
      7 O         145.6030  139.4195  154.3079 O.2     1  UNL1       -0.2699
      8 N         141.3692  141.5316  158.7257 N.3     1  UNL1       -0.2670
      9 C         141.0087  142.9480  159.0632 C.3     1  UNL1        0.0773
     10 C         139.9192  143.2285  160.0552 C.3     1  UNL1        0.0497
     11 C         139.1902  142.0927  160.7098 C.ar    1  UNL1        0.0473
     12 C         139.5507  140.6763  160.3724 C.ar    1  UNL1        0.0774
     13 N         138.8217  139.5405  161.0269 N.ar    1  UNL1       -0.2271
     14 C         137.7322  139.8210  162.0190 C.ar    1  UNL1        0.2012
     15 N         137.3716  141.2375  162.3565 N.ar    1  UNL1       -0.1896
     16 C         138.1006  142.3733  161.7019 C.ar    1  UNL1        0.2233
     17 C         140.6402  140.3958  159.3803 C.3     1  UNL1        0.1185
     18 O         137.7401  143.7896  162.0394 O.3     1  UNL1       -0.4604
     19 C         137.9109  144.2932  163.4420 C.3     1  UNL1        0.2071
     20 C         139.0966  143.8635  164.2540 C.3     1  UNL1        0.0474
     21 C         140.4669  144.3618  163.9021 C.3     1  UNL1        0.0037
     22 C         141.3493  145.3237  163.1632 C.3     1  UNL1        0.0001
     23 C         141.9580  144.2630  164.0316 C.3     1  UNL1        0.0001
     24 C         143.6519  137.8194  154.9266 C.ar    1  UNL1        0.0566
     25 C         142.4304  137.7391  154.0598 C.ar    1  UNL1        0.0044
     26 C         141.7190  136.4300  153.8858 C.ar    1  UNL1        0.0002
     27 C         142.2292  135.2013  154.5786 C.ar    1  UNL1        0.0274
     28 C         143.4507  135.2816  155.4454 C.ar    1  UNL1        0.1361
     29 C         144.1621  136.5906  155.6194 C.ar    1  UNL1        0.0411
     30 C         141.5177  133.8922  154.4045 C.3     1  UNL1        0.0952
     31 N         141.0881  133.1063  155.6078 N.3     1  UNL1       -0.3174
     32 H         141.9120  132.7864  156.1169 H       1  UNL1        0.1192
     33 H         140.5388  132.3004  155.3091 H       1  UNL1        0.1192
     34 O         143.9608  134.0529  156.1382 O.3     1  UNL1       -0.4717
     35 C         143.7771  133.8957  157.6185 C.3     1  UNL1        0.2525
     36 C         148.2531  142.0676  155.4263 C.3     1  UNL1        0.1107
     37 N         147.0186  141.5036  156.0647 N.am    1  UNL1       -0.3013
     38 C         145.6704  142.0563  155.7082 C.2     1  UNL1        0.2407
     39 O         145.5569  143.1730  154.7132 O.2     1  UNL1       -0.2733
     40 H         147.0931  140.7706  156.7178 H       1  UNL1        0.1495
@<TRIPOS>BOND
     1    36    37    1
     2    37    38   am
     3    38    39    2
     4     1    38    1
     5     1     2    1
     6     2     3    1
     7     3     8    1
     8     8     9    1
     9     9    10    1
    10    10    11    1
    11    11    12   ar
    12    12    13   ar
    13    13    14   ar
    14    14    15   ar
    15    15    16   ar
    16    16    18    1
    17    18    19    1
    18    19    20    1
    19    20    21    1
    20    21    22    1
    21    22    23    1
    22    12    17    1
    23     3     4    1
    24     4     5    1
    25     5     6   am
    26     6     7    2
    27     6    24    1
    28    24    25   ar
    29    25    26   ar
    30    26    27   ar
    31    27    30    1
    32    30    31    1
    33    27    28   ar
    34    28    34    1
    35    34    35    1
    36    28    29   ar
    37     5     1    1
    38    29    24   ar
    39    17     8    1
    40    16    11   ar
    41    23    21    1
    42    37    40    1
    43    31    32    1
    44    31    33    1
@<TRIPOS>MOLECULE
*****
 40 44 0 0 0
SMALL
GASTEIGER

@<TRIPOS>ATOM
      1 C         142.6028  138.7932  155.8928 C.3     1  UNL1        0.1534
      2 C         142.6930  139.4049  157.2594 C.3     1  UNL1        0.0469
      3 C         142.7685  138.2915  158.2617 C.3     1  UNL1        0.0798
      4 C         142.7249  136.9915  157.5145 C.3     1  UNL1        0.1101
      5 N         142.6225  137.3016  156.0505 N.am    1  UNL1       -0.2680
      6 C         142.5522  136.2965  154.9392 C.2     1  UNL1        0.2495
      7 O         142.4516  136.7582  153.5156 O.2     1  UNL1       -0.2699
      8 N         142.8698  138.4501  159.7499 N.3     1  UNL1       -0.2670
      9 C         143.9162  139.3491  160.3388 C.3     1  UNL1        0.0773
     10 C         144.0174  139.5078  161.8269 C.3     1  UNL1        0.0497
     11 C         143.0723  138.7674  162.7261 C.ar    1  UNL1        0.0473
     12 C         142.0259  137.8684  162.1372 C.ar    1  UNL1        0.0774
     13 N         141.0807  137.1281  163.0364 N.ar    1  UNL1       -0.2271
     14 C         141.1820  137.2867  164.5245 C.ar    1  UNL1        0.2012
     15 N         142.2284  138.1857  165.1135 N.ar    1  UNL1       -0.1896
     16 C         143.1735  138.9261  164.2143 C.ar    1  UNL1        0.2233
     17 C         141.9246  137.7098  160.6491 C.3     1  UNL1        0.1185
     18 O         144.2199  139.8251  164.8032 O.3     1  UNL1       -0.4604
     19 C         143.8811  141.2451  165.1479 C.3     1  UNL1        0.2071
     20 C         142.9856  142.0425  164.2467 C.3     1  UNL1        0.0474
     21 C         143.4107  143.4031  163.7800 C.3     1  UNL1        0.0037
     22 C         144.1310  144.2709  162.7910 C.3     1  UNL1        0.0001
     23 C         143.4267  144.8921  163.9606 C.3     1  UNL1        0.0001
     24 C         142.5824  134.8297  155.2516 C.ar    1  UNL1        0.0566
     25 C         141.3554  133.9928  155.0418 C.ar    1  UNL1        0.0044
     26 C         141.3856  132.5260  155.3541 C.ar    1  UNL1        0.0002
     27 C         142.6429  131.8961  155.8762 C.ar    1  UNL1        0.0274
     28 C         143.8699  132.7330  156.0860 C.ar    1  UNL1        0.1361
     29 C         143.8396  134.1998  155.7737 C.ar    1  UNL1        0.0411
     30 C         142.6730  130.4292  156.1886 C.3     1  UNL1        0.0952
     31 N         143.2095  129.9539  157.5062 N.3     1  UNL1       -0.3174
     32 H         144.2068  130.1608  157.5619 H       1  UNL1        0.1192
     33 H         143.0660  128.9474  157.5886 H       1  UNL1        0.1192
     34 O         145.1270  132.1031  156.6082 O.3     1  UNL1       -0.4717
     35 C         145.5467  132.3331  158.0298 C.3     1  UNL1        0.2525
     36 C         143.5781  140.2960  152.3516 C.3     1  UNL1        0.1107
     37 N         143.6717  139.5476  153.6482 N.am    1  UNL1       -0.3013
     38 C         142.5092  139.5415  154.5962 C.2     1  UNL1        0.2407
     39 O         141.2532  140.2838  154.2476 O.2     1  UNL1       -0.2733
     40 H         144.4960  139.0605  153.8770 H       1  UNL1        0.1495
@<TRIPOS>BOND
     1    36    37    1
     2    37    38   am
     3    38    39    2
     4     1    38    1
     5     1     2    1
     6     2     3    1
     7     3     8    1
     8     8     9    1
     9     9    10    1
    10    10    11    1
    11    11    12   ar
    12    12    13   ar
    13    13    14   ar
    14    14    15   ar
    15    15    16   ar
    16    16    18    1
    17    18    19    1
    18    19    20    1
    19    20    21    1
    20    21    22    1
    21    22    23    1
    22    12    17    1
    23     3     4    1
    24     4     5    1
    25     5     6   am
    26     6     7    2
    27     6    24    1
    28    24    25   ar
    29    25    26   ar
    30    26    27   ar
    31    27    30    1
    32    30    31    1
    33    27    28   ar
    34    28    34    1
    35    34    35    1
    36    28    29   ar
    37     5     1    1
    38    29    24   ar
    39    17     8    1
    40    16    11   ar
    41    23    21    1
    42    37    40    1
    43    31    32    1
    44    31    33    1
@<TRIPOS>MOLECULE
*****
 40 44 0 0 0
SMALL
GASTEIGER

@<TRIPOS>ATOM
      1 C         141.8599  142.3044  161.8682 C.3     1  UNL1        0.1534
      2 C         142.1198  141.6873  160.5259 C.3     1  UNL1        0.0469
      3 C         141.5054  140.3189  160.5180 C.3     1  UNL1        0.0798
      4 C         140.8657  140.0903  161.8553 C.3     1  UNL1        0.1101
      5 N         141.0848  141.3173  162.6898 N.am    1  UNL1       -0.2680
      6 C         140.6118  141.5215  164.0986 C.2     1  UNL1        0.2495
      7 O         140.9074  142.8086  164.8099 O.2     1  UNL1       -0.2699
      8 N         141.5268  139.3494  159.3736 N.3     1  UNL1       -0.2670
      9 C         142.7829  138.5944  159.0537 C.3     1  UNL1        0.0773
     10 C         142.8043  137.6250  157.9093 C.3     1  UNL1        0.0497
     11 C         141.5697  137.4105  157.0848 C.ar    1  UNL1        0.0473
     12 C         140.3137  138.1655  157.4047 C.ar    1  UNL1        0.0774
     13 N         139.0791  137.9510  156.5802 N.ar    1  UNL1       -0.2271
     14 C         139.1006  136.9815  155.4358 C.ar    1  UNL1        0.2012
     15 N         140.3566  136.2265  155.1159 N.ar    1  UNL1       -0.1896
     16 C         141.5912  136.4410  155.9404 C.ar    1  UNL1        0.2233
     17 C         140.2923  139.1349  158.5491 C.3     1  UNL1        0.1185
     18 O         142.8473  135.6860  155.6205 O.3     1  UNL1       -0.4604
     19 C         142.7723  134.2453  155.2096 C.3     1  UNL1        0.2071
     20 C         142.4739  133.1885  156.2315 C.3     1  UNL1        0.0474
     21 C         143.5872  132.5918  157.0404 C.3     1  UNL1        0.0037
     22 C         144.2974  131.3873  157.5831 C.3     1  UNL1        0.0001
     23 C         144.8052  132.7629  157.8989 C.3     1  UNL1        0.0001
     24 C         139.8433  140.4386  164.7961 C.ar    1  UNL1        0.0566
     25 C         139.2275  139.3252  164.0017 C.ar    1  UNL1        0.0044
     26 C         138.4589  138.2422  164.6992 C.ar    1  UNL1        0.0002
     27 C         138.3061  138.2727  166.1911 C.ar    1  UNL1        0.0274
     28 C         138.9219  139.3862  166.9855 C.ar    1  UNL1        0.1361
     29 C         139.6905  140.4691  166.2880 C.ar    1  UNL1        0.0411
     30 C         137.5375  137.1897  166.8887 C.3     1  UNL1        0.0952
     31 N         136.4857  137.5467  167.8967 N.3     1  UNL1       -0.3174
     32 H         136.9245  137.9910  168.7032 H       1  UNL1        0.1192
     33 H         136.0011  136.7007  168.1965 H       1  UNL1        0.1192
     34 O         138.7692  139.4167  168.4773 O.3     1  UNL1       -0.4717
     35 C         139.3859  140.5295  169.2718 C.3     1  UNL1        0.2525
     36 C         143.7792  145.1761  163.8225 C.3     1  UNL1        0.1107
     37 N         143.3411  143.8116  163.3796 N.am    1  UNL1       -0.3013
     38 C         142.2981  143.6689  162.3110 C.2     1  UNL1        0.2407
     39 O         141.6932  144.8906  161.6853 O.2     1  UNL1       -0.2733
     40 H         143.7380  143.0097  163.7903 H       1  UNL1        0.1495
@<TRIPOS>BOND
     1    36    37    1
     2    37    38   am
     3    38    39    2
     4     1    38    1
     5     1     2    1
     6     2     3    1
     7     3     8    1
     8     8     9    1
     9     9    10    1
    10    10    11    1
    11    11    12   ar
    12    12    13   ar
    13    13    14   ar
    14    14    15   ar
    15    15    16   ar
    16    16    18    1
    17    18    19    1
    18    19    20    1
    19    20    21    1
    20    21    22    1
    21    22    23    1
    22    12    17    1
    23     3     4    1
    24     4     5    1
    25     5     6   am
    26     6     7    2
    27     6    24    1
    28    24    25   ar
    29    25    26   ar
    30    26    27   ar
    31    27    30    1
    32    30    31    1
    33    27    28   ar
    34    28    34    1
    35    34    35    1
    36    28    29   ar
    37     5     1    1
    38    29    24   ar
    39    17     8    1
    40    16    11   ar
    41    23    21    1
    42    37    40    1
    43    31    32    1
    44    31    33    1
@<TRIPOS>MOLECULE
*****
 40 44 0 0 0
SMALL
GASTEIGER

@<TRIPOS>ATOM
      1 C         139.8809  145.5101  156.9443 C.3     1  UNL1        0.1534
      2 C         140.9101  145.1924  157.9882 C.3     1  UNL1        0.0469
      3 C         140.8950  143.7103  158.2182 C.3     1  UNL1        0.0798
      4 C         139.8564  143.1118  157.3165 C.3     1  UNL1        0.1101
      5 N         139.2296  144.2241  156.5291 N.am    1  UNL1       -0.2680
      6 C         138.1425  144.0765  155.5062 C.2     1  UNL1        0.2495
      7 O         137.6120  145.2862  154.7956 O.2     1  UNL1       -0.2699
      8 N         141.7657  142.9585  159.1810 N.3     1  UNL1       -0.2670
      9 C         143.0028  143.6022  159.7333 C.3     1  UNL1        0.0773
     10 C         143.8734  142.8504  160.6960 C.3     1  UNL1        0.0497
     11 C         143.5069  141.4550  161.1064 C.ar    1  UNL1        0.0473
     12 C         142.2698  140.8113  160.5541 C.ar    1  UNL1        0.0774
     13 N         141.9033  139.4159  160.9644 N.ar    1  UNL1       -0.2271
     14 C         142.7739  138.6641  161.9271 C.ar    1  UNL1        0.2012
     15 N         144.0111  139.3078  162.4795 N.ar    1  UNL1       -0.1896
     16 C         144.3776  140.7032  162.0692 C.ar    1  UNL1        0.2233
     17 C         141.3992  141.5631  159.5913 C.3     1  UNL1        0.1185
     18 O         145.6147  141.3469  162.6215 O.3     1  UNL1       -0.4604
     19 C         145.6136  141.9005  164.0157 C.3     1  UNL1        0.2071
     20 C         144.3208  142.2996  164.6631 C.3     1  UNL1        0.0474
     21 C         143.6603  143.5922  164.2851 C.3     1  UNL1        0.0037
     22 C         142.4349  144.3532  163.8739 C.3     1  UNL1        0.0001
     23 C         143.7418  145.0700  164.0414 C.3     1  UNL1        0.0001
     24 C         137.5858  142.7190  155.1940 C.ar    1  UNL1        0.0566
     25 C         138.0732  141.9671  153.9911 C.ar    1  UNL1        0.0044
     26 C         137.5165  140.6097  153.6789 C.ar    1  UNL1        0.0002
     27 C         136.4724  140.0042  154.5695 C.ar    1  UNL1        0.0274
     28 C         135.9850  140.7561  155.7725 C.ar    1  UNL1        0.1361
     29 C         136.5417  142.1136  156.0847 C.ar    1  UNL1        0.0411
     30 C         135.9158  138.6467  154.2573 C.3     1  UNL1        0.0952
     31 N         136.7179  137.4177  154.5672 N.3     1  UNL1       -0.3174
     32 H         137.5521  137.3992  153.9805 H       1  UNL1        0.1192
     33 H         136.1539  136.5881  154.3826 H       1  UNL1        0.1192
     34 O         134.9410  140.1507  156.6631 O.3     1  UNL1       -0.4717
     35 C         133.4868  140.3184  156.3355 C.3     1  UNL1        0.2525
     36 C         139.6553  148.6162  154.4843 C.3     1  UNL1        0.1107
     37 N         139.9769  147.2522  155.0192 N.am    1  UNL1       -0.3013
     38 C         139.5593  146.8741  156.4094 C.2     1  UNL1        0.2407
     39 O         138.8202  147.8600  157.2648 O.2     1  UNL1       -0.2733
     40 H         140.4620  146.6051  154.4578 H       1  UNL1        0.1495
@<TRIPOS>BOND
     1    36    37    1
     2    37    38   am
     3    38    39    2
     4     1    38    1
     5     1     2    1
     6     2     3    1
     7     3     8    1
     8     8     9    1
     9     9    10    1
    10    10    11    1
    11    11    12   ar
    12    12    13   ar
    13    13    14   ar
    14    14    15   ar
    15    15    16   ar
    16    16    18    1
    17    18    19    1
    18    19    20    1
    19    20    21    1
    20    21    22    1
    21    22    23    1
    22    12    17    1
    23     3     4    1
    24     4     5    1
    25     5     6   am
    26     6     7    2
    27     6    24    1
    28    24    25   ar
    29    25    26   ar
    30    26    27   ar
    31    27    30    1
    32    30    31    1
    33    27    28   ar
    34    28    34    1
    35    34    35    1
    36    28    29   ar
    37     5     1    1
    38    29    24   ar
    39    17     8    1
    40    16    11   ar
    41    23    21    1
    42    37    40    1
    43    31    32    1
    44    31    33    1
