@<TRIPOS>MOLECULE
*****
 28 31 0 0 0
SMALL
GASTEIGER

@<TRIPOS>ATOM
      1 C         139.5312  141.5947  164.6427 C.ar    1  UNL1        0.0681
      2 C         140.1624  141.0660  163.3889 C.ar    1  UNL1        0.0208
      3 C         139.7048  141.5654  162.0506 C.ar    1  UNL1        0.0384
      4 C         138.6159  142.5936  161.9661 C.ar    1  UNL1        0.1386
      5 C         137.9847  143.1224  163.2199 C.ar    1  UNL1        0.0384
      6 C         138.4423  142.6229  164.5582 C.ar    1  UNL1        0.0208
      7 C         137.9939  139.4319  166.0423 C.3     1  UNL1        0.0723
      8 C         139.2202  140.0138  166.6809 C.ar    1  UNL1        0.1268
      9 N         139.6778  139.5143  168.0191 N.ar    1  UNL1       -0.2318
     10 C         140.9042  140.0962  168.6577 C.ar    1  UNL1        0.0894
     11 C         141.3618  139.5967  169.9959 C.ar    1  UNL1        0.0194
     12 C         142.5880  140.1786  170.6344 C.ar    1  UNL1        0.0039
     13 C         143.3567  141.2600  169.9345 C.ar    1  UNL1        0.0299
     14 C         142.8990  141.7595  168.5963 C.ar    1  UNL1        0.1462
     15 F         143.6677  142.8409  167.8964 F       1  UNL1       -0.2040
     16 C         141.6728  141.1776  167.9578 C.ar    1  UNL1        0.1015
     17 C         141.2151  141.6771  166.6195 C.ar    1  UNL1        0.2691
     18 O         141.9837  142.7585  165.9196 O.2     1  UNL1       -0.2665
     19 N         139.9889  141.0952  165.9810 N.ar    1  UNL1       -0.2625
     20 O         138.1582  143.0931  160.6277 O.3     1  UNL1       -0.4754
     21 C         139.0112  142.8737  159.4136 C.3     1  UNL1        0.2068
     22 C         139.9262  143.9609  158.9333 C.3     1  UNL1        0.0646
     23 C         140.1732  145.1666  159.7909 C.3     1  UNL1        0.0759
     24 N         140.9083  145.0246  161.0906 N.3     1  UNL1       -0.2726
     25 C         142.1401  144.2002  161.3214 C.3     1  UNL1        0.0721
     26 C         142.5338  144.3481  162.7613 C.3     1  UNL1        0.0188
     27 C         141.5454  145.2639  163.4204 C.3     1  UNL1        0.0188
     28 C         140.5407  145.6820  162.3878 C.3     1  UNL1        0.0721
@<TRIPOS>BOND
     1     7     8    1
     2     8     9   ar
     3     9    10   ar
     4    10    11   ar
     5    11    12   ar
     6    12    13   ar
     7    13    14   ar
     8    14    15    1
     9    14    16   ar
    10    16    17   ar
    11    17    18    2
    12    17    19   ar
    13    19     1    1
    14     1     2   ar
    15     2     3   ar
    16     3     4   ar
    17     4    20    1
    18    20    21    1
    19    21    22    1
    20    22    23    1
    21    23    24    1
    22    24    25    1
    23    25    26    1
    24    26    27    1
    25    27    28    1
    26     4     5   ar
    27     5     6   ar
    28    19     8   ar
    29     6     1   ar
    30    16    10   ar
    31    28    24    1
@<TRIPOS>MOLECULE
*****
 28 31 0 0 0
SMALL
GASTEIGER

@<TRIPOS>ATOM
      1 C         140.5877  139.2191  164.9093 C.ar    1  UNL1        0.0681
      2 C         141.1677  137.8533  164.6897 C.ar    1  UNL1        0.0208
      3 C         141.3709  137.3401  163.2950 C.ar    1  UNL1        0.0384
      4 C         140.9940  138.1927  162.1199 C.ar    1  UNL1        0.1386
      5 C         140.4140  139.5585  162.3394 C.ar    1  UNL1        0.0384
      6 C         140.2109  140.0717  163.7341 C.ar    1  UNL1        0.0208
      7 C         138.1199  138.4663  166.4400 C.3     1  UNL1        0.0723
      8 C         139.1507  139.3559  167.0695 C.ar    1  UNL1        0.1268
      9 N         138.9475  139.8691  168.4642 N.ar    1  UNL1       -0.2318
     10 C         139.9783  140.7587  169.0937 C.ar    1  UNL1        0.0894
     11 C         139.7751  141.2719  170.4884 C.ar    1  UNL1        0.0194
     12 C         140.8059  142.1614  171.1178 C.ar    1  UNL1        0.0039
     13 C         142.0398  142.5378  170.3524 C.ar    1  UNL1        0.0299
     14 C         142.2430  142.0247  168.9577 C.ar    1  UNL1        0.1462
     15 F         143.4769  142.4011  168.1923 F       1  UNL1       -0.2040
     16 C         141.2122  141.1351  168.3283 C.ar    1  UNL1        0.1015
     17 C         141.4154  140.6219  166.9335 C.ar    1  UNL1        0.2691
     18 O         142.6493  140.9983  166.1681 O.2     1  UNL1       -0.2665
     19 N         140.3846  139.7323  166.3041 N.ar    1  UNL1       -0.2625
     20 O         141.1972  137.6795  160.7250 O.3     1  UNL1       -0.4754
     21 C         142.0532  138.4462  159.7610 C.3     1  UNL1        0.2068
     22 C         143.4559  138.8209  160.1377 C.3     1  UNL1        0.0646
     23 C         143.7595  140.2116  160.6108 C.3     1  UNL1        0.0759
     24 N         144.4076  140.4246  161.9466 N.3     1  UNL1       -0.2726
     25 C         144.4330  139.4432  163.0809 C.3     1  UNL1        0.0721
     26 C         145.1852  140.0685  164.2181 C.3     1  UNL1        0.0188
     27 C         145.6247  141.4363  163.7868 C.3     1  UNL1        0.0188
     28 C         145.1441  141.6564  162.3829 C.3     1  UNL1        0.0721
@<TRIPOS>BOND
     1     7     8    1
     2     8     9   ar
     3     9    10   ar
     4    10    11   ar
     5    11    12   ar
     6    12    13   ar
     7    13    14   ar
     8    14    15    1
     9    14    16   ar
    10    16    17   ar
    11    17    18    2
    12    17    19   ar
    13    19     1    1
    14     1     2   ar
    15     2     3   ar
    16     3     4   ar
    17     4    20    1
    18    20    21    1
    19    21    22    1
    20    22    23    1
    21    23    24    1
    22    24    25    1
    23    25    26    1
    24    26    27    1
    25    27    28    1
    26     4     5   ar
    27     5     6   ar
    28    19     8   ar
    29     6     1   ar
    30    16    10   ar
    31    28    24    1
@<TRIPOS>MOLECULE
*****
 28 31 0 0 0
SMALL
GASTEIGER

@<TRIPOS>ATOM
      1 C         143.0378  140.1454  164.7819 C.ar    1  UNL1        0.0681
      2 C         142.0766  139.5947  163.7705 C.ar    1  UNL1        0.0208
      3 C         142.4600  139.5446  162.3212 C.ar    1  UNL1        0.0384
      4 C         143.8044  140.0451  161.8833 C.ar    1  UNL1        0.1386
      5 C         144.7656  140.5958  162.8947 C.ar    1  UNL1        0.0384
      6 C         144.3822  140.6460  164.3440 C.ar    1  UNL1        0.0208
      7 C         143.9253  137.9676  166.6444 C.3     1  UNL1        0.0723
      8 C         143.0981  139.1067  167.1625 C.ar    1  UNL1        0.1268
      9 N         142.7148  139.1568  168.6118 N.ar    1  UNL1       -0.2318
     10 C         141.8876  140.2958  169.1299 C.ar    1  UNL1        0.0894
     11 C         141.5042  140.3459  170.5792 C.ar    1  UNL1        0.0194
     12 C         140.6771  141.4850  171.0972 C.ar    1  UNL1        0.0039
     13 C         140.2333  142.5739  170.1659 C.ar    1  UNL1        0.0299
     14 C         140.6167  142.5238  168.7166 C.ar    1  UNL1        0.1462
     15 F         140.1729  143.6128  167.7853 F       1  UNL1       -0.2040
     16 C         141.4438  141.3848  168.1986 C.ar    1  UNL1        0.1015
     17 C         141.8272  141.3346  166.7492 C.ar    1  UNL1        0.2691
     18 O         141.3834  142.4236  165.8180 O.2     1  UNL1       -0.2665
     19 N         142.6544  140.1956  166.2312 N.ar    1  UNL1       -0.2625
     20 O         144.1878  139.9950  160.4339 O.3     1  UNL1       -0.4754
     21 C         143.7493  141.0871  159.5039 C.3     1  UNL1        0.2068
     22 C         144.0512  142.5190  159.8334 C.3     1  UNL1        0.0646
     23 C         142.9484  143.4363  160.2720 C.3     1  UNL1        0.0759
     24 N         142.9836  144.0510  161.6397 N.3     1  UNL1       -0.2726
     25 C         141.8232  144.6769  162.3552 C.3     1  UNL1        0.0721
     26 C         142.3078  145.1606  163.6899 C.3     1  UNL1        0.0188
     27 C         143.7677  144.8336  163.7993 C.3     1  UNL1        0.0188
     28 C         144.1853  144.1478  162.5322 C.3     1  UNL1        0.0721
@<TRIPOS>BOND
     1     7     8    1
     2     8     9   ar
     3     9    10   ar
     4    10    11   ar
     5    11    12   ar
     6    12    13   ar
     7    13    14   ar
     8    14    15    1
     9    14    16   ar
    10    16    17   ar
    11    17    18    2
    12    17    19   ar
    13    19     1    1
    14     1     2   ar
    15     2     3   ar
    16     3     4   ar
    17     4    20    1
    18    20    21    1
    19    21    22    1
    20    22    23    1
    21    23    24    1
    22    24    25    1
    23    25    26    1
    24    26    27    1
    25    27    28    1
    26     4     5   ar
    27     5     6   ar
    28    19     8   ar
    29     6     1   ar
    30    16    10   ar
    31    28    24    1
@<TRIPOS>MOLECULE
*****
 28 31 0 0 0
SMALL
GASTEIGER

@<TRIPOS>ATOM
      1 C         139.6613  139.3147  164.9175 C.ar    1  UNL1        0.0681
      2 C         140.2631  138.0165  164.4675 C.ar    1  UNL1        0.0208
      3 C         140.0692  137.5495  163.0554 C.ar    1  UNL1        0.0384
      4 C         139.2734  138.3806  162.0932 C.ar    1  UNL1        0.1386
      5 C         138.6715  139.6788  162.5431 C.ar    1  UNL1        0.0384
      6 C         138.8655  140.1459  163.9553 C.ar    1  UNL1        0.0208
      7 C         137.7098  138.5041  167.0469 C.3     1  UNL1        0.0723
      8 C         138.8795  139.3765  167.3944 C.ar    1  UNL1        0.1268
      9 N         139.0734  139.8435  168.8066 N.ar    1  UNL1       -0.2318
     10 C         140.2432  140.7159  169.1541 C.ar    1  UNL1        0.0894
     11 C         140.4371  141.1829  170.5662 C.ar    1  UNL1        0.0194
     12 C         141.6068  142.0552  170.9137 C.ar    1  UNL1        0.0039
     13 C         142.5826  142.4605  169.8490 C.ar    1  UNL1        0.0299
     14 C         142.3887  141.9935  168.4368 C.ar    1  UNL1        0.1462
     15 F         143.3644  142.3989  167.3721 F       1  UNL1       -0.2040
     16 C         141.2190  141.1212  168.0894 C.ar    1  UNL1        0.1015
     17 C         141.0250  140.6541  166.6772 C.ar    1  UNL1        0.2691
     18 O         142.0007  141.0595  165.6125 O.2     1  UNL1       -0.2665
     19 N         139.8553  139.7818  166.3297 N.ar    1  UNL1       -0.2625
     20 O         139.0794  137.9135  160.6810 O.3     1  UNL1       -0.4754
     21 C         139.3692  138.8406  159.5379 C.3     1  UNL1        0.2068
     22 C         140.4497  138.5031  158.5538 C.3     1  UNL1        0.0646
     23 C         141.8533  138.9768  158.7892 C.3     1  UNL1        0.0759
     24 N         142.4097  139.0109  160.1818 N.3     1  UNL1       -0.2726
     25 C         143.1162  137.8848  160.8768 C.3     1  UNL1        0.0721
     26 C         143.5005  138.3549  162.2484 C.3     1  UNL1        0.0188
     27 C         143.0316  139.7716  162.4011 C.3     1  UNL1        0.0188
     28 C         142.3575  140.1770  161.1239 C.3     1  UNL1        0.0721
@<TRIPOS>BOND
     1     7     8    1
     2     8     9   ar
     3     9    10   ar
     4    10    11   ar
     5    11    12   ar
     6    12    13   ar
     7    13    14   ar
     8    14    15    1
     9    14    16   ar
    10    16    17   ar
    11    17    18    2
    12    17    19   ar
    13    19     1    1
    14     1     2   ar
    15     2     3   ar
    16     3     4   ar
    17     4    20    1
    18    20    21    1
    19    21    22    1
    20    22    23    1
    21    23    24    1
    22    24    25    1
    23    25    26    1
    24    26    27    1
    25    27    28    1
    26     4     5   ar
    27     5     6   ar
    28    19     8   ar
    29     6     1   ar
    30    16    10   ar
    31    28    24    1
@<TRIPOS>MOLECULE
*****
 28 31 0 0 0
SMALL
GASTEIGER

@<TRIPOS>ATOM
      1 C         139.0507  140.0074  164.7321 C.ar    1  UNL1        0.0681
      2 C         138.0641  141.0076  164.2065 C.ar    1  UNL1        0.0208
      3 C         137.4781  140.8344  162.8366 C.ar    1  UNL1        0.0384
      4 C         137.8787  139.6610  161.9924 C.ar    1  UNL1        0.1386
      5 C         138.8653  138.6609  162.5181 C.ar    1  UNL1        0.0384
      6 C         139.4513  138.8341  163.8879 C.ar    1  UNL1        0.0208
      7 C         137.7374  138.7152  167.0997 C.3     1  UNL1        0.0723
      8 C         138.9801  139.5345  167.2859 C.ar    1  UNL1        0.1268
      9 N         139.5660  139.7078  168.6558 N.ar    1  UNL1       -0.2318
     10 C         140.8087  140.5271  168.8419 C.ar    1  UNL1        0.0894
     11 C         141.3946  140.7003  170.2118 C.ar    1  UNL1        0.0194
     12 C         142.6372  141.5196  170.3979 C.ar    1  UNL1        0.0039
     13 C         143.2938  142.1657  169.2141 C.ar    1  UNL1        0.0299
     14 C         142.7079  141.9925  167.8442 C.ar    1  UNL1        0.1462
     15 F         143.3645  142.6386  166.6604 F       1  UNL1       -0.2040
     16 C         141.4653  141.1732  167.6581 C.ar    1  UNL1        0.1015
     17 C         140.8793  141.0000  166.2882 C.ar    1  UNL1        0.2691
     18 O         141.5359  141.6461  165.1044 O.2     1  UNL1       -0.2665
     19 N         139.6367  140.1807  166.1021 N.ar    1  UNL1       -0.2625
     20 O         137.2927  139.4878  160.6225 O.3     1  UNL1       -0.4754
     21 C         137.9701  140.1026  159.4338 C.3     1  UNL1        0.2068
     22 C         138.9622  141.2111  159.6260 C.3     1  UNL1        0.0646
     23 C         138.5013  142.6385  159.6264 C.3     1  UNL1        0.0759
     24 N         139.2231  143.6595  160.4548 N.3     1  UNL1       -0.2726
     25 C         139.0704  143.8634  161.9331 C.3     1  UNL1        0.0721
     26 C         139.9773  144.9859  162.3424 C.3     1  UNL1        0.0188
     27 C         140.6906  145.4758  161.1171 C.3     1  UNL1        0.0188
     28 C         140.2245  144.6560  159.9505 C.3     1  UNL1        0.0721
@<TRIPOS>BOND
     1     7     8    1
     2     8     9   ar
     3     9    10   ar
     4    10    11   ar
     5    11    12   ar
     6    12    13   ar
     7    13    14   ar
     8    14    15    1
     9    14    16   ar
    10    16    17   ar
    11    17    18    2
    12    17    19   ar
    13    19     1    1
    14     1     2   ar
    15     2     3   ar
    16     3     4   ar
    17     4    20    1
    18    20    21    1
    19    21    22    1
    20    22    23    1
    21    23    24    1
    22    24    25    1
    23    25    26    1
    24    26    27    1
    25    27    28    1
    26     4     5   ar
    27     5     6   ar
    28    19     8   ar
    29     6     1   ar
    30    16    10   ar
    31    28    24    1
@<TRIPOS>MOLECULE
*****
 28 31 0 0 0
SMALL
GASTEIGER

@<TRIPOS>ATOM
      1 C         142.6290  139.1043  164.6541 C.ar    1  UNL1        0.0681
      2 C         143.7894  139.5510  163.8150 C.ar    1  UNL1        0.0208
      3 C         143.9669  139.0052  162.4292 C.ar    1  UNL1        0.0384
      4 C         142.9841  138.0127  161.8825 C.ar    1  UNL1        0.1386
      5 C         141.8238  137.5660  162.7216 C.ar    1  UNL1        0.0384
      6 C         141.6462  138.1117  164.1074 C.ar    1  UNL1        0.0208
      7 C         143.9088  137.7190  166.9871 C.3     1  UNL1        0.0723
      8 C         143.0914  138.9575  167.2065 C.ar    1  UNL1        0.1268
      9 N         142.9140  139.5032  168.5924 N.ar    1  UNL1       -0.2318
     10 C         142.0966  140.7417  168.8118 C.ar    1  UNL1        0.0894
     11 C         141.9191  141.2875  170.1976 C.ar    1  UNL1        0.0194
     12 C         141.1017  142.5259  170.4169 C.ar    1  UNL1        0.0039
     13 C         140.4618  143.2186  169.2504 C.ar    1  UNL1        0.0299
     14 C         140.6393  142.6728  167.8646 C.ar    1  UNL1        0.1462
     15 F         139.9994  143.3655  166.6981 F       1  UNL1       -0.2040
     16 C         141.4567  141.4344  167.6452 C.ar    1  UNL1        0.1015
     17 C         141.6342  140.8885  166.2593 C.ar    1  UNL1        0.2691
     18 O         140.9943  141.5812  165.0928 O.2     1  UNL1       -0.2665
     19 N         142.4515  139.6501  166.0400 N.ar    1  UNL1       -0.2625
     20 O         143.1616  137.4669  160.4966 O.3     1  UNL1       -0.4754
     21 C         142.8675  138.3315  159.3066 C.3     1  UNL1        0.2068
     22 C         141.4476  138.6559  158.9479 C.3     1  UNL1        0.0646
     23 C         140.7350  139.7763  159.6458 C.3     1  UNL1        0.0759
     24 N         139.7263  139.4735  160.7138 N.3     1  UNL1       -0.2726
     25 C         138.8750  138.2414  160.7989 C.3     1  UNL1        0.0721
     26 C         138.0143  138.3561  162.0220 C.3     1  UNL1        0.0188
     27 C         138.3336  139.6591  162.6930 C.3     1  UNL1        0.0188
     28 C         139.3917  140.3498  161.8845 C.3     1  UNL1        0.0721
@<TRIPOS>BOND
     1     7     8    1
     2     8     9   ar
     3     9    10   ar
     4    10    11   ar
     5    11    12   ar
     6    12    13   ar
     7    13    14   ar
     8    14    15    1
     9    14    16   ar
    10    16    17   ar
    11    17    18    2
    12    17    19   ar
    13    19     1    1
    14     1     2   ar
    15     2     3   ar
    16     3     4   ar
    17     4    20    1
    18    20    21    1
    19    21    22    1
    20    22    23    1
    21    23    24    1
    22    24    25    1
    23    25    26    1
    24    26    27    1
    25    27    28    1
    26     4     5   ar
    27     5     6   ar
    28    19     8   ar
    29     6     1   ar
    30    16    10   ar
    31    28    24    1
@<TRIPOS>MOLECULE
*****
 28 31 0 0 0
SMALL
GASTEIGER

@<TRIPOS>ATOM
      1 C         139.1043  141.6864  164.7189 C.ar    1  UNL1        0.0681
      2 C         137.7736  142.2917  164.3827 C.ar    1  UNL1        0.0208
      3 C         137.5021  142.7800  162.9907 C.ar    1  UNL1        0.0384
      4 C         138.5612  142.6631  161.9349 C.ar    1  UNL1        0.1386
      5 C         139.8918  142.0578  162.2712 C.ar    1  UNL1        0.0384
      6 C         140.1633  141.5695  163.6632 C.ar    1  UNL1        0.0208
      7 C         138.5566  138.8259  165.4385 C.3     1  UNL1        0.0723
      8 C         139.1020  139.7678  166.4708 C.ar    1  UNL1        0.1268
      9 N         139.3735  139.2794  167.8628 N.ar    1  UNL1       -0.2318
     10 C         139.9188  140.2212  168.8951 C.ar    1  UNL1        0.0894
     11 C         140.1903  139.7329  170.2871 C.ar    1  UNL1        0.0194
     12 C         140.7357  140.6747  171.3193 C.ar    1  UNL1        0.0039
     13 C         141.0095  142.1049  170.9595 C.ar    1  UNL1        0.0299
     14 C         140.7380  142.5933  169.5675 C.ar    1  UNL1        0.1462
     15 F         141.0119  144.0235  169.2077 F       1  UNL1       -0.2040
     16 C         140.1927  141.6515  168.5353 C.ar    1  UNL1        0.1015
     17 C         139.9212  142.1398  167.1432 C.ar    1  UNL1        0.2691
     18 O         140.1950  143.5701  166.7834 O.2     1  UNL1       -0.2665
     19 N         139.3758  141.1980  166.1110 N.ar    1  UNL1       -0.2625
     20 O         138.2896  143.1515  160.5428 O.3     1  UNL1       -0.4754
     21 C         139.0795  142.6072  159.3897 C.3     1  UNL1        0.2068
     22 C         138.4386  141.6541  158.4249 C.3     1  UNL1        0.0646
     23 C         138.7532  140.1892  158.4970 C.3     1  UNL1        0.0759
     24 N         138.6585  139.4654  159.8074 N.3     1  UNL1       -0.2726
     25 C         139.7202  138.5958  160.4131 C.3     1  UNL1        0.0721
     26 C         139.2034  138.0770  161.7222 C.3     1  UNL1        0.0188
     27 C         137.8223  138.6260  161.9257 C.3     1  UNL1        0.0188
     28 C         137.4856  139.4840  160.7422 C.3     1  UNL1        0.0721
@<TRIPOS>BOND
     1     7     8    1
     2     8     9   ar
     3     9    10   ar
     4    10    11   ar
     5    11    12   ar
     6    12    13   ar
     7    13    14   ar
     8    14    15    1
     9    14    16   ar
    10    16    17   ar
    11    17    18    2
    12    17    19   ar
    13    19     1    1
    14     1     2   ar
    15     2     3   ar
    16     3     4   ar
    17     4    20    1
    18    20    21    1
    19    21    22    1
    20    22    23    1
    21    23    24    1
    22    24    25    1
    23    25    26    1
    24    26    27    1
    25    27    28    1
    26     4     5   ar
    27     5     6   ar
    28    19     8   ar
    29     6     1   ar
    30    16    10   ar
    31    28    24    1
@<TRIPOS>MOLECULE
*****
 28 31 0 0 0
SMALL
GASTEIGER

@<TRIPOS>ATOM
      1 C         141.0759  139.5388  164.6870 C.ar    1  UNL1        0.0681
      2 C         141.4096  138.1276  164.3033 C.ar    1  UNL1        0.0208
      3 C         141.7290  137.7940  162.8762 C.ar    1  UNL1        0.0384
      4 C         141.7146  138.8716  161.8328 C.ar    1  UNL1        0.1386
      5 C         141.3808  140.2827  162.2166 C.ar    1  UNL1        0.0384
      6 C         141.0615  140.6163  163.6437 C.ar    1  UNL1        0.0208
      7 C         138.4589  138.6827  165.8781 C.3     1  UNL1        0.0723
      8 C         139.4480  139.4443  166.7097 C.ar    1  UNL1        0.1268
      9 N         139.1287  139.7779  168.1369 N.ar    1  UNL1       -0.2318
     10 C         140.1178  140.5395  168.9685 C.ar    1  UNL1        0.0894
     11 C         139.7984  140.8731  170.3956 C.ar    1  UNL1        0.0194
     12 C         140.7875  141.6347  171.2272 C.ar    1  UNL1        0.0039
     13 C         142.0960  142.0627  170.6317 C.ar    1  UNL1        0.0299
     14 C         142.4154  141.7292  169.2046 C.ar    1  UNL1        0.1462
     15 F         143.7238  142.1573  168.6091 F       1  UNL1       -0.2040
     16 C         141.4263  140.9676  168.3730 C.ar    1  UNL1        0.1015
     17 C         141.7456  140.6340  166.9458 C.ar    1  UNL1        0.2691
     18 O         143.0541  141.0621  166.3503 O.2     1  UNL1       -0.2665
     19 N         140.7565  139.8724  166.1142 N.ar    1  UNL1       -0.2625
     20 O         142.0339  138.5380  160.4056 O.3     1  UNL1       -0.4754
     21 C         141.0292  138.8169  159.3274 C.3     1  UNL1        0.2068
     22 C         139.5709  138.5723  159.5796 C.3     1  UNL1        0.0646
     23 C         138.5948  139.7083  159.4977 C.3     1  UNL1        0.0759
     24 N         138.2349  140.4785  160.7335 N.3     1  UNL1       -0.2726
     25 C         138.3300  141.9658  160.9045 C.3     1  UNL1        0.0721
     26 C         137.8707  142.3032  162.2919 C.3     1  UNL1        0.0188
     27 C         137.4916  141.0245  162.9786 C.3     1  UNL1        0.0188
     28 C         137.7168  139.8968  162.0153 C.3     1  UNL1        0.0721
@<TRIPOS>BOND
     1     7     8    1
     2     8     9   ar
     3     9    10   ar
     4    10    11   ar
     5    11    12   ar
     6    12    13   ar
     7    13    14   ar
     8    14    15    1
     9    14    16   ar
    10    16    17   ar
    11    17    18    2
    12    17    19   ar
    13    19     1    1
    14     1     2   ar
    15     2     3   ar
    16     3     4   ar
    17     4    20    1
    18    20    21    1
    19    21    22    1
    20    22    23    1
    21    23    24    1
    22    24    25    1
    23    25    26    1
    24    26    27    1
    25    27    28    1
    26     4     5   ar
    27     5     6   ar
    28    19     8   ar
    29     6     1   ar
    30    16    10   ar
    31    28    24    1
@<TRIPOS>MOLECULE
*****
 28 31 0 0 0
SMALL
GASTEIGER

@<TRIPOS>ATOM
      1 C         139.7502  139.3520  164.8757 C.ar    1  UNL1        0.0681
      2 C         139.0318  140.2309  163.8952 C.ar    1  UNL1        0.0208
      3 C         138.8621  139.7855  162.4729 C.ar    1  UNL1        0.0384
      4 C         139.4107  138.4612  162.0312 C.ar    1  UNL1        0.1386
      5 C         140.1290  137.5823  163.0118 C.ar    1  UNL1        0.0384
      6 C         140.2988  138.0277  164.4340 C.ar    1  UNL1        0.0208
      7 C         137.7442  138.5372  166.9523 C.3     1  UNL1        0.0723
      8 C         138.9170  139.3900  167.3363 C.ar    1  UNL1        0.1268
      9 N         139.0867  139.8354  168.7585 N.ar    1  UNL1       -0.2318
     10 C         140.2594  140.6883  169.1425 C.ar    1  UNL1        0.0894
     11 C         140.4291  141.1337  170.5647 C.ar    1  UNL1        0.0194
     12 C         141.6018  141.9865  170.9487 C.ar    1  UNL1        0.0039
     13 C         142.6048  142.3940  169.9104 C.ar    1  UNL1        0.0299
     14 C         142.4351  141.9485  168.4881 C.ar    1  UNL1        0.1462
     15 F         143.4380  142.3560  167.4499 F       1  UNL1       -0.2040
     16 C         141.2624  141.0957  168.1042 C.ar    1  UNL1        0.1015
     17 C         141.0926  140.6503  166.6819 C.ar    1  UNL1        0.2691
     18 O         142.0956  141.0577  165.6436 O.2     1  UNL1       -0.2665
     19 N         139.9199  139.7975  166.2980 N.ar    1  UNL1       -0.2625
     20 O         139.2409  138.0158  160.6090 O.3     1  UNL1       -0.4754
     21 C         140.1301  138.5733  159.5372 C.3     1  UNL1        0.2068
     22 C         139.6875  138.5425  158.1044 C.3     1  UNL1        0.0646
     23 C         140.7072  138.4896  157.0055 C.3     1  UNL1        0.0759
     24 N         141.4511  137.2159  156.7333 N.3     1  UNL1       -0.2726
     25 C         142.7420  136.7952  157.3711 C.3     1  UNL1        0.0721
     26 C         143.1235  135.4585  156.8075 C.3     1  UNL1        0.0188
     27 C         142.0685  135.0530  155.8213 C.3     1  UNL1        0.0188
     28 C         141.0348  136.1392  155.7754 C.3     1  UNL1        0.0721
@<TRIPOS>BOND
     1     7     8    1
     2     8     9   ar
     3     9    10   ar
     4    10    11   ar
     5    11    12   ar
     6    12    13   ar
     7    13    14   ar
     8    14    15    1
     9    14    16   ar
    10    16    17   ar
    11    17    18    2
    12    17    19   ar
    13    19     1    1
    14     1     2   ar
    15     2     3   ar
    16     3     4   ar
    17     4    20    1
    18    20    21    1
    19    21    22    1
    20    22    23    1
    21    23    24    1
    22    24    25    1
    23    25    26    1
    24    26    27    1
    25    27    28    1
    26     4     5   ar
    27     5     6   ar
    28    19     8   ar
    29     6     1   ar
    30    16    10   ar
    31    28    24    1
