@<TRIPOS>MOLECULE
*****
 38 40 0 0 0
SMALL
GASTEIGER

@<TRIPOS>ATOM
      1 C         139.5052  139.0736  165.4551 C.3     1  UNL1        0.1811
      2 O         140.6218  139.9106  164.9049 O.3     1  UNL1       -0.3784
      3 H         141.1686  139.3711  164.3125 H       1  UNL1        0.2106
      4 C         138.3886  138.2367  166.0053 C.3     1  UNL1        0.4197
      5 F         137.2720  137.3997  166.5555 F       1  UNL1       -0.1676
      6 F         137.5240  139.4580  166.1086 F       1  UNL1       -0.1676
      7 F         139.2532  137.0153  165.9021 F       1  UNL1       -0.1676
      8 C         140.0072  137.8930  164.6779 C.3     1  UNL1        0.0807
      9 C         142.8428  138.7084  158.9423 C.2     1  UNL1        0.1857
     10 C         141.5242  138.4404  159.6051 C.2     1  UNL1        0.0359
     11 C         141.4421  138.3431  161.0997 C.2     1  UNL1        0.0095
     12 C         140.2908  138.0897  162.0273 C.2     1  UNL1        0.0124
     13 C         140.8159  138.1039  163.4323 C.2     1  UNL1        0.0568
     14 N         142.2916  138.3660  163.3731 N.2     1  UNL1       -0.2661
     15 C         142.6787  138.5139  161.9315 C.3     1  UNL1        0.1661
     16 C         143.9973  138.7819  161.2686 C.2     1  UNL1        0.1025
     17 N         144.0794  138.8792  159.7740 N.2     1  UNL1       -0.2281
     18 S         142.9249  138.8057  157.4477 S.O2    1  UNL1        0.0250
     19 O         141.6965  137.9538  157.3248 O.2     1  UNL1       -0.1672
     20 O         144.1534  139.6577  157.5706 O.2     1  UNL1       -0.1672
     21 C         144.1301  138.2331  155.2184 C.3     1  UNL1        0.0276
     22 C         143.0069  138.9030  155.9531 C.3     1  UNL1        0.1577
     23 C         139.0032  140.2542  166.2323 C.3     1  UNL1        0.0398
     24 C         139.9132  140.9625  167.1917 C.3     1  UNL1        0.0216
     25 C         140.0314  142.1097  166.2326 C.3     1  UNL1        0.0045
     26 C         139.7949  139.8153  168.1508 C.3     1  UNL1        0.0045
     27 C         140.8231  141.6708  168.1510 C.ar    1  UNL1       -0.0182
     28 C         140.2789  142.7420  169.0490 C.ar    1  UNL1       -0.0018
     29 C         141.1888  143.4503  170.0083 C.ar    1  UNL1        0.0293
     30 C         142.6430  143.0873  170.0697 C.ar    1  UNL1        0.1403
     31 F         143.5530  143.7956  171.0290 F       1  UNL1       -0.2042
     32 C         143.1872  142.0162  169.1717 C.ar    1  UNL1        0.0338
     33 C         142.2772  141.3079  168.2123 C.ar    1  UNL1        0.0514
     34 C         142.8214  140.2367  167.3143 C.2     1  UNL1        0.2425
     35 N         143.1632  140.5551  165.8889 N.am    1  UNL1       -0.3253
     36 O         143.0238  138.8471  167.8417 O.2     1  UNL1       -0.2704
     37 H         143.0304  141.4671  165.5427 H       1  UNL1        0.1453
     38 H         143.5204  139.8520  165.2995 H       1  UNL1        0.1453
@<TRIPOS>BOND
     1    21    22    1
     2    22    18    1
     3    18    19    2
     4    18    20    2
     5    18     9    1
     6     9    10    2
     7    10    11    1
     8    11    12    2
     9    12    13    1
    10    13     8    1
    11     8     1    1
    12     1     2    1
    13     1    23    1
    14    23    24    1
    15    24    25    1
    16    24    26    1
    17    24    27    1
    18    27    28   ar
    19    28    29   ar
    20    29    30   ar
    21    30    31    1
    22    30    32   ar
    23    32    33   ar
    24    33    34    1
    25    34    35   am
    26    34    36    2
    27     1     4    1
    28     4     5    1
    29     4     6    1
    30     4     7    1
    31    13    14    2
    32    14    15    1
    33    15    16    1
    34    16    17    2
    35    17     9    1
    36    15    11    1
    37    33    27   ar
    38     2     3    1
    39    35    37    1
    40    35    38    1
@<TRIPOS>MOLECULE
*****
 38 40 0 0 0
SMALL
GASTEIGER

@<TRIPOS>ATOM
      1 C         138.5129  139.4503  166.1815 C.3     1  UNL1        0.1811
      2 O         138.9353  140.8877  166.1081 O.3     1  UNL1       -0.3784
      3 H         138.8348  141.2082  165.1981 H       1  UNL1        0.2106
      4 C         138.0904  138.0129  166.2549 C.3     1  UNL1        0.4197
      5 F         137.6679  136.5755  166.3282 F       1  UNL1       -0.1676
      6 F         137.2464  138.3222  167.4557 F       1  UNL1       -0.1676
      7 F         138.9343  137.7036  165.0541 F       1  UNL1       -0.1676
      8 C         138.1985  139.4679  164.7149 C.3     1  UNL1        0.0807
      9 C         139.9930  144.2890  160.8239 C.2     1  UNL1        0.1857
     10 C         140.2297  142.8403  161.1322 C.2     1  UNL1        0.0359
     11 C         139.4678  142.1749  162.2398 C.2     1  UNL1        0.0095
     12 C         139.4880  140.7719  162.7703 C.2     1  UNL1        0.0124
     13 C         138.5018  140.6884  163.8974 C.2     1  UNL1        0.0568
     14 N         137.8721  142.0396  164.0636 N.2     1  UNL1       -0.2661
     15 C         138.4691  142.9584  163.0391 C.3     1  UNL1        0.1661
     16 C         138.2324  144.4072  162.7308 C.2     1  UNL1        0.1025
     17 N         138.9943  145.0724  161.6232 N.2     1  UNL1       -0.2281
     18 S         140.7550  144.9543  159.7163 S.O2    1  UNL1        0.0250
     19 O         141.9588  145.0556  160.6053 O.2     1  UNL1       -0.1672
     20 O         139.5511  144.8529  158.8271 O.2     1  UNL1       -0.1672
     21 C         140.8207  145.9784  157.3295 C.3     1  UNL1        0.0276
     22 C         141.5170  145.6196  158.6087 C.3     1  UNL1        0.1577
     23 C         138.8272  139.4328  167.6480 C.3     1  UNL1        0.0398
     24 C         140.0839  140.0772  168.1535 C.3     1  UNL1        0.0216
     25 C         140.8758  139.3568  167.1029 C.3     1  UNL1        0.0045
     26 C         139.2918  140.7977  169.2041 C.3     1  UNL1        0.0045
     27 C         141.3406  140.7216  168.6589 C.ar    1  UNL1       -0.0182
     28 C         142.0227  140.1795  169.8799 C.ar    1  UNL1       -0.0018
     29 C         143.2793  140.8239  170.3854 C.ar    1  UNL1        0.0293
     30 C         143.8539  142.0105  169.6698 C.ar    1  UNL1        0.1403
     31 F         145.1106  142.6549  170.1752 F       1  UNL1       -0.2042
     32 C         143.1718  142.5526  168.4488 C.ar    1  UNL1        0.0338
     33 C         141.9151  141.9081  167.9434 C.ar    1  UNL1        0.0514
     34 C         141.2330  142.4502  166.7223 C.2     1  UNL1        0.2425
     35 N         141.7377  142.0863  165.3574 N.am    1  UNL1       -0.3253
     36 O         140.0462  143.3562  166.8662 O.2     1  UNL1       -0.2704
     37 H         142.5167  141.4916  165.2630 H       1  UNL1        0.1453
     38 H         141.2900  142.4421  164.5560 H       1  UNL1        0.1453
@<TRIPOS>BOND
     1    21    22    1
     2    22    18    1
     3    18    19    2
     4    18    20    2
     5    18     9    1
     6     9    10    2
     7    10    11    1
     8    11    12    2
     9    12    13    1
    10    13     8    1
    11     8     1    1
    12     1     2    1
    13     1    23    1
    14    23    24    1
    15    24    25    1
    16    24    26    1
    17    24    27    1
    18    27    28   ar
    19    28    29   ar
    20    29    30   ar
    21    30    31    1
    22    30    32   ar
    23    32    33   ar
    24    33    34    1
    25    34    35   am
    26    34    36    2
    27     1     4    1
    28     4     5    1
    29     4     6    1
    30     4     7    1
    31    13    14    2
    32    14    15    1
    33    15    16    1
    34    16    17    2
    35    17     9    1
    36    15    11    1
    37    33    27   ar
    38     2     3    1
    39    35    37    1
    40    35    38    1
@<TRIPOS>MOLECULE
*****
 38 40 0 0 0
SMALL
GASTEIGER

@<TRIPOS>ATOM
      1 C         139.6870  143.3797  164.5863 C.3     1  UNL1        0.1811
      2 O         140.9651  142.6732  164.2438 O.3     1  UNL1       -0.3784
      3 H         141.5716  143.2939  163.8105 H       1  UNL1        0.2106
      4 C         138.4089  144.0861  164.9289 C.3     1  UNL1        0.4197
      5 F         137.1308  144.7926  165.2714 F       1  UNL1       -0.1676
      6 F         137.6283  142.8725  164.5194 F       1  UNL1       -0.1676
      7 F         139.1895  145.2998  165.3383 F       1  UNL1       -0.1676
      8 C         140.2299  144.6475  163.9966 C.3     1  UNL1        0.0807
      9 C         141.1076  145.4336  157.6551 C.2     1  UNL1        0.1857
     10 C         140.2765  145.8844  158.8195 C.2     1  UNL1        0.0359
     11 C         140.5314  145.3206  160.1860 C.2     1  UNL1        0.0095
     12 C         139.8793  145.5721  161.5133 C.2     1  UNL1        0.0124
     13 C         140.5625  144.7128  162.5354 C.2     1  UNL1        0.0568
     14 N         141.6367  143.9303  161.8400 N.2     1  UNL1       -0.2661
     15 C         141.6175  144.3059  160.3879 C.3     1  UNL1        0.1661
     16 C         142.4487  143.8551  159.2234 C.2     1  UNL1        0.1025
     17 N         142.1937  144.4190  157.8571 N.2     1  UNL1       -0.2281
     18 S         140.8526  145.9975  156.2887 S.O2    1  UNL1        0.0250
     19 O         142.0841  145.3116  155.7759 O.2     1  UNL1       -0.1672
     20 O         139.6211  146.6835  156.8016 O.2     1  UNL1       -0.1672
     21 C         139.8077  147.8271  154.7687 C.3     1  UNL1        0.0276
     22 C         140.5977  146.5614  154.9223 C.3     1  UNL1        0.1577
     23 C         139.1442  142.1118  165.1760 C.3     1  UNL1        0.0398
     24 C         139.9050  141.4010  166.2559 C.3     1  UNL1        0.0216
     25 C         140.3147  142.7218  166.8367 C.3     1  UNL1        0.0045
     26 C         139.4953  140.0800  165.6750 C.3     1  UNL1        0.0045
     27 C         140.6658  140.6902  167.3357 C.ar    1  UNL1       -0.0182
     28 C         140.0398  140.4846  168.6832 C.ar    1  UNL1       -0.0018
     29 C         140.8006  139.7738  169.7630 C.ar    1  UNL1        0.0293
     30 C         142.1874  139.2687  169.4953 C.ar    1  UNL1        0.1403
     31 F         142.9482  138.5579  170.5751 F       1  UNL1       -0.2042
     32 C         142.8134  139.4743  168.1477 C.ar    1  UNL1        0.0338
     33 C         142.0525  140.1851  167.0679 C.ar    1  UNL1        0.0514
     34 C         142.6785  140.3907  165.7204 C.2     1  UNL1        0.2425
     35 N         143.4459  141.6474  165.4338 N.am    1  UNL1       -0.3253
     36 O         142.5371  139.3398  164.6595 O.2     1  UNL1       -0.2704
     37 H         143.5387  142.3371  166.1301 H       1  UNL1        0.1453
     38 H         143.8568  141.7824  164.5493 H       1  UNL1        0.1453
@<TRIPOS>BOND
     1    21    22    1
     2    22    18    1
     3    18    19    2
     4    18    20    2
     5    18     9    1
     6     9    10    2
     7    10    11    1
     8    11    12    2
     9    12    13    1
    10    13     8    1
    11     8     1    1
    12     1     2    1
    13     1    23    1
    14    23    24    1
    15    24    25    1
    16    24    26    1
    17    24    27    1
    18    27    28   ar
    19    28    29   ar
    20    29    30   ar
    21    30    31    1
    22    30    32   ar
    23    32    33   ar
    24    33    34    1
    25    34    35   am
    26    34    36    2
    27     1     4    1
    28     4     5    1
    29     4     6    1
    30     4     7    1
    31    13    14    2
    32    14    15    1
    33    15    16    1
    34    16    17    2
    35    17     9    1
    36    15    11    1
    37    33    27   ar
    38     2     3    1
    39    35    37    1
    40    35    38    1
@<TRIPOS>MOLECULE
*****
 38 40 0 0 0
SMALL
GASTEIGER

@<TRIPOS>ATOM
      1 C         140.3070  138.8279  164.3130 C.3     1  UNL1        0.1811
      2 O         141.2450  139.8649  163.7701 O.3     1  UNL1       -0.3784
      3 H         140.7990  140.3715  163.0735 H       1  UNL1        0.2106
      4 C         139.3689  137.7909  164.8558 C.3     1  UNL1        0.4197
      5 F         138.4308  136.7539  165.3987 F       1  UNL1       -0.1676
      6 F         140.5065  136.8194  164.9658 F       1  UNL1       -0.1676
      7 F         138.2314  138.7624  164.7458 F       1  UNL1       -0.1676
      8 C         139.2437  139.2922  163.3623 C.3     1  UNL1        0.0807
      9 C         140.2500  144.3665  159.5098 C.2     1  UNL1        0.1857
     10 C         140.3229  142.8696  159.5713 C.2     1  UNL1        0.0359
     11 C         139.9353  142.1508  160.8295 C.2     1  UNL1        0.0095
     12 C         139.9048  140.6936  161.1843 C.2     1  UNL1        0.0124
     13 C         139.4254  140.5714  162.6004 C.2     1  UNL1        0.0568
     14 N         139.1597  141.9528  163.1208 N.2     1  UNL1       -0.2661
     15 C         139.4748  142.9290  162.0263 C.3     1  UNL1        0.1661
     16 C         139.4019  144.4260  161.9648 C.2     1  UNL1        0.1025
     17 N         139.7895  145.1448  160.7066 N.2     1  UNL1       -0.2281
     18 S         140.6376  145.0852  158.2516 S.O2    1  UNL1        0.0250
     19 O         139.4551  144.4894  157.5470 O.2     1  UNL1       -0.1672
     20 O         141.8202  145.6812  158.9563 O.2     1  UNL1       -0.1672
     21 C         142.1978  145.3276  156.1883 C.3     1  UNL1        0.0276
     22 C         141.0252  145.8040  156.9933 C.3     1  UNL1        0.1577
     23 C         141.3703  138.3637  165.2636 C.3     1  UNL1        0.0398
     24 C         141.8977  139.2970  166.3129 C.3     1  UNL1        0.0216
     25 C         140.4971  139.7271  166.6342 C.3     1  UNL1        0.0045
     26 C         143.2983  138.8668  165.9915 C.3     1  UNL1        0.0045
     27 C         142.4250  140.2303  167.3621 C.ar    1  UNL1       -0.0182
     28 C         142.4992  139.7855  168.7927 C.ar    1  UNL1       -0.0018
     29 C         143.0265  140.7187  169.8419 C.ar    1  UNL1        0.0293
     30 C         143.4798  142.0969  169.4605 C.ar    1  UNL1        0.1403
     31 F         144.0071  143.0301  170.5097 F       1  UNL1       -0.2042
     32 C         143.4056  142.5417  168.0299 C.ar    1  UNL1        0.0338
     33 C         142.8783  141.6083  166.9807 C.ar    1  UNL1        0.0514
     34 C         142.8041  142.0531  165.5501 C.2     1  UNL1        0.2425
     35 N         141.5426  142.6679  165.0202 N.am    1  UNL1       -0.3253
     36 O         143.9914  141.8831  164.6493 O.2     1  UNL1       -0.2704
     37 H         140.7633  142.7794  165.6114 H       1  UNL1        0.1453
     38 H         141.4939  142.9598  164.0812 H       1  UNL1        0.1453
@<TRIPOS>BOND
     1    21    22    1
     2    22    18    1
     3    18    19    2
     4    18    20    2
     5    18     9    1
     6     9    10    2
     7    10    11    1
     8    11    12    2
     9    12    13    1
    10    13     8    1
    11     8     1    1
    12     1     2    1
    13     1    23    1
    14    23    24    1
    15    24    25    1
    16    24    26    1
    17    24    27    1
    18    27    28   ar
    19    28    29   ar
    20    29    30   ar
    21    30    31    1
    22    30    32   ar
    23    32    33   ar
    24    33    34    1
    25    34    35   am
    26    34    36    2
    27     1     4    1
    28     4     5    1
    29     4     6    1
    30     4     7    1
    31    13    14    2
    32    14    15    1
    33    15    16    1
    34    16    17    2
    35    17     9    1
    36    15    11    1
    37    33    27   ar
    38     2     3    1
    39    35    37    1
    40    35    38    1
@<TRIPOS>MOLECULE
*****
 38 40 0 0 0
SMALL
GASTEIGER

@<TRIPOS>ATOM
      1 C         142.3614  144.1672  162.4419 C.3     1  UNL1        0.1811
      2 O         143.6206  143.4181  162.1207 O.3     1  UNL1       -0.3784
      3 H         143.7158  143.3434  161.1583 H       1  UNL1        0.2106
      4 C         141.1021  144.9164  162.7632 C.3     1  UNL1        0.4197
      5 F         139.8429  145.6655  163.0844 F       1  UNL1       -0.1676
      6 F         140.3474  144.0683  161.7827 F       1  UNL1       -0.1676
      7 F         141.8568  145.7644  163.7436 F       1  UNL1       -0.1676
      8 C         142.0724  144.3095  160.9769 C.3     1  UNL1        0.0807
      9 C         143.4681  139.4764  156.9402 C.2     1  UNL1        0.1857
     10 C         142.4062  140.0115  157.8544 C.2     1  UNL1        0.0359
     11 C         142.6394  141.2865  158.6096 C.2     1  UNL1        0.0095
     12 C         141.7841  142.0517  159.5755 C.2     1  UNL1        0.0124
     13 C         142.5508  143.2645  160.0131 C.2     1  UNL1        0.0568
     14 N         143.8797  143.2487  159.3178 N.2     1  UNL1       -0.2661
     15 C         143.9346  142.0262  158.4504 C.3     1  UNL1        0.1661
     16 C         144.9965  141.4910  157.5360 C.2     1  UNL1        0.1025
     17 N         144.7632  140.2161  156.7809 N.2     1  UNL1       -0.2281
     18 S         143.2348  138.2015  156.1851 S.O2    1  UNL1        0.0250
     19 O         141.7844  138.2416  156.5653 O.2     1  UNL1       -0.1672
     20 O         144.6853  138.1612  155.8048 O.2     1  UNL1       -0.1672
     21 C         144.0191  135.8259  155.4840 C.3     1  UNL1        0.0276
     22 C         143.0015  136.9265  155.4300 C.3     1  UNL1        0.1577
     23 C         142.6504  144.0249  163.9069 C.3     1  UNL1        0.0398
     24 C         142.9441  142.6725  164.4855 C.3     1  UNL1        0.0216
     25 C         144.1300  143.2393  165.2082 C.3     1  UNL1        0.0045
     26 C         141.7581  142.1057  163.7628 C.3     1  UNL1        0.0045
     27 C         143.2377  141.3202  165.0642 C.ar    1  UNL1       -0.0182
     28 C         142.5850  140.8950  166.3460 C.ar    1  UNL1       -0.0018
     29 C         142.8787  139.5427  166.9247 C.ar    1  UNL1        0.0293
     30 C         143.8252  138.6154  166.2215 C.ar    1  UNL1        0.1403
     31 F         144.1189  137.2631  166.8001 F       1  UNL1       -0.2042
     32 C         144.4779  139.0406  164.9396 C.ar    1  UNL1        0.0338
     33 C         144.1842  140.3930  164.3610 C.ar    1  UNL1        0.0514
     34 C         144.8370  140.8182  163.0791 C.2     1  UNL1        0.2425
     35 N         144.2507  140.3984  161.7637 N.am    1  UNL1       -0.3253
     36 O         146.0759  141.6631  163.1126 O.2     1  UNL1       -0.2704
     37 H         143.4376  139.8439  161.7417 H       1  UNL1        0.1453
     38 H         144.6792  140.6774  160.9224 H       1  UNL1        0.1453
@<TRIPOS>BOND
     1    21    22    1
     2    22    18    1
     3    18    19    2
     4    18    20    2
     5    18     9    1
     6     9    10    2
     7    10    11    1
     8    11    12    2
     9    12    13    1
    10    13     8    1
    11     8     1    1
    12     1     2    1
    13     1    23    1
    14    23    24    1
    15    24    25    1
    16    24    26    1
    17    24    27    1
    18    27    28   ar
    19    28    29   ar
    20    29    30   ar
    21    30    31    1
    22    30    32   ar
    23    32    33   ar
    24    33    34    1
    25    34    35   am
    26    34    36    2
    27     1     4    1
    28     4     5    1
    29     4     6    1
    30     4     7    1
    31    13    14    2
    32    14    15    1
    33    15    16    1
    34    16    17    2
    35    17     9    1
    36    15    11    1
    37    33    27   ar
    38     2     3    1
    39    35    37    1
    40    35    38    1
@<TRIPOS>MOLECULE
*****
 38 40 0 0 0
SMALL
GASTEIGER

@<TRIPOS>ATOM
      1 C         143.7495  140.2419  163.3663 C.3     1  UNL1        0.1811
      2 O         142.4251  139.5472  163.2517 O.3     1  UNL1       -0.3784
      3 H         142.0075  139.7843  162.4089 H       1  UNL1        0.2106
      4 C         145.0741  140.9365  163.4810 C.3     1  UNL1        0.4197
      5 F         146.3986  141.6311  163.5957 F       1  UNL1       -0.1676
      6 F         144.4807  142.1695  162.8664 F       1  UNL1       -0.1676
      7 F         145.6675  139.7036  164.0956 F       1  UNL1       -0.1676
      8 C         143.5329  140.8763  162.0245 C.3     1  UNL1        0.0807
      9 C         141.3604  137.2287  157.1688 C.2     1  UNL1        0.1857
     10 C         142.5881  137.5733  157.9585 C.2     1  UNL1        0.0359
     11 C         142.5069  138.5748  159.0723 C.2     1  UNL1        0.0095
     12 C         143.5410  139.1110  160.0174 C.2     1  UNL1        0.0124
     13 C         142.8710  140.0991  160.9255 C.2     1  UNL1        0.0568
     14 N         141.4229  140.1737  160.5417 N.2     1  UNL1       -0.2661
     15 C         141.1978  139.2316  159.3964 C.3     1  UNL1        0.1661
     16 C         139.9700  138.8869  158.6065 C.2     1  UNL1        0.1025
     17 N         140.0513  137.8855  157.4928 N.2     1  UNL1       -0.2281
     18 S         141.4416  136.2272  156.0550 S.O2    1  UNL1        0.0250
     19 O         140.2092  136.8163  155.4355 O.2     1  UNL1       -0.1672
     20 O         142.6742  135.6381  156.6746 O.2     1  UNL1       -0.1672
     21 C         141.5027  133.7580  155.2494 C.3     1  UNL1        0.0276
     22 C         141.5229  135.2258  154.9412 C.3     1  UNL1        0.1577
     23 C         143.9662  139.6074  164.7082 C.3     1  UNL1        0.0398
     24 C         142.9118  139.7186  165.7694 C.3     1  UNL1        0.0216
     25 C         142.7619  138.2262  165.7767 C.3     1  UNL1        0.0045
     26 C         143.0618  141.2111  165.7620 C.3     1  UNL1        0.0045
     27 C         141.8575  139.8297  166.8305 C.ar    1  UNL1       -0.0182
     28 C         142.2466  139.8121  168.2791 C.ar    1  UNL1       -0.0018
     29 C         141.1923  139.9232  169.3402 C.ar    1  UNL1        0.0293
     30 C         139.7489  140.0519  168.9528 C.ar    1  UNL1        0.1403
     31 F         138.6946  140.1630  170.0140 F       1  UNL1       -0.2042
     32 C         139.3598  140.0695  167.5043 C.ar    1  UNL1        0.0338
     33 C         140.4142  139.9584  166.4431 C.ar    1  UNL1        0.0514
     34 C         140.0251  139.9760  164.9945 C.2     1  UNL1        0.2425
     35 N         139.9683  141.2765  164.2490 N.am    1  UNL1       -0.3253
     36 O         139.6929  138.6934  164.2915 O.2     1  UNL1       -0.2704
     37 H         140.1864  142.1184  164.7104 H       1  UNL1        0.1453
     38 H         139.7130  141.2881  163.2983 H       1  UNL1        0.1453
@<TRIPOS>BOND
     1    21    22    1
     2    22    18    1
     3    18    19    2
     4    18    20    2
     5    18     9    1
     6     9    10    2
     7    10    11    1
     8    11    12    2
     9    12    13    1
    10    13     8    1
    11     8     1    1
    12     1     2    1
    13     1    23    1
    14    23    24    1
    15    24    25    1
    16    24    26    1
    17    24    27    1
    18    27    28   ar
    19    28    29   ar
    20    29    30   ar
    21    30    31    1
    22    30    32   ar
    23    32    33   ar
    24    33    34    1
    25    34    35   am
    26    34    36    2
    27     1     4    1
    28     4     5    1
    29     4     6    1
    30     4     7    1
    31    13    14    2
    32    14    15    1
    33    15    16    1
    34    16    17    2
    35    17     9    1
    36    15    11    1
    37    33    27   ar
    38     2     3    1
    39    35    37    1
    40    35    38    1
@<TRIPOS>MOLECULE
*****
 38 40 0 0 0
SMALL
GASTEIGER

@<TRIPOS>ATOM
      1 C         141.8710  142.9148  163.9332 C.3     1  UNL1        0.1811
      2 O         141.6212  141.4361  163.9000 O.3     1  UNL1       -0.3784
      3 H         141.2497  141.1903  163.0383 H       1  UNL1        0.2106
      4 C         142.1208  144.3935  163.9665 C.3     1  UNL1        0.4197
      5 F         142.3706  145.8722  163.9997 F       1  UNL1       -0.1676
      6 F         143.4761  144.1512  164.5617 F       1  UNL1       -0.1676
      7 F         140.7655  144.6358  163.3712 F       1  UNL1       -0.1676
      8 C         141.3500  143.0343  162.5317 C.3     1  UNL1        0.0807
      9 C         145.0011  141.2680  157.5165 C.2     1  UNL1        0.1857
     10 C         144.6199  142.4381  158.3740 C.2     1  UNL1        0.0359
     11 C         143.6415  142.2581  159.4967 C.2     1  UNL1        0.0095
     12 C         143.0795  143.2191  160.5020 C.2     1  UNL1        0.0124
     13 C         142.1350  142.4626  161.3885 C.2     1  UNL1        0.0568
     14 N         142.1132  141.0343  160.9310 N.2     1  UNL1       -0.2661
     15 C         143.0443  140.9079  159.7618 C.3     1  UNL1        0.1661
     16 C         143.4256  139.7377  158.9042 C.2     1  UNL1        0.1025
     17 N         144.4039  139.9178  157.7816 N.2     1  UNL1       -0.2281
     18 S         145.9795  141.4481  156.3939 S.O2    1  UNL1        0.0250
     19 O         145.3695  140.2813  155.6751 O.2     1  UNL1       -0.1672
     20 O         146.5895  142.6149  157.1126 O.2     1  UNL1       -0.1672
     21 C         148.3977  141.9227  155.5711 C.3     1  UNL1        0.0276
     22 C         146.9579  141.6281  155.2712 C.3     1  UNL1        0.1577
     23 C         142.3919  142.7953  165.3347 C.3     1  UNL1        0.0398
     24 C         141.5329  142.1901  166.4052 C.3     1  UNL1        0.0216
     25 C         140.4078  143.1038  166.0187 C.3     1  UNL1        0.0045
     26 C         142.6580  141.2764  166.7916 C.3     1  UNL1        0.0045
     27 C         140.6738  141.5851  167.4756 C.ar    1  UNL1       -0.0182
     28 C         140.6233  142.2090  168.8387 C.ar    1  UNL1       -0.0018
     29 C         139.7642  141.6039  169.9092 C.ar    1  UNL1        0.0293
     30 C         138.9556  140.3749  169.6165 C.ar    1  UNL1        0.1403
     31 F         138.0965  139.7698  170.6869 F       1  UNL1       -0.2042
     32 C         139.0061  139.7509  168.2533 C.ar    1  UNL1        0.0338
     33 C         139.8652  140.3561  167.1829 C.ar    1  UNL1        0.0514
     34 C         139.9157  139.7322  165.8197 C.2     1  UNL1        0.2425
     35 N         138.8904  140.0996  164.7883 N.am    1  UNL1       -0.3253
     36 O         140.9914  138.7408  165.4880 O.2     1  UNL1       -0.2704
     37 H         138.1844  140.7502  165.0060 H       1  UNL1        0.1453
     38 H         138.9235  139.6901  163.8936 H       1  UNL1        0.1453
@<TRIPOS>BOND
     1    21    22    1
     2    22    18    1
     3    18    19    2
     4    18    20    2
     5    18     9    1
     6     9    10    2
     7    10    11    1
     8    11    12    2
     9    12    13    1
    10    13     8    1
    11     8     1    1
    12     1     2    1
    13     1    23    1
    14    23    24    1
    15    24    25    1
    16    24    26    1
    17    24    27    1
    18    27    28   ar
    19    28    29   ar
    20    29    30   ar
    21    30    31    1
    22    30    32   ar
    23    32    33   ar
    24    33    34    1
    25    34    35   am
    26    34    36    2
    27     1     4    1
    28     4     5    1
    29     4     6    1
    30     4     7    1
    31    13    14    2
    32    14    15    1
    33    15    16    1
    34    16    17    2
    35    17     9    1
    36    15    11    1
    37    33    27   ar
    38     2     3    1
    39    35    37    1
    40    35    38    1
@<TRIPOS>MOLECULE
*****
 38 40 0 0 0
SMALL
GASTEIGER

@<TRIPOS>ATOM
      1 C         139.7890  139.7604  164.9176 C.3     1  UNL1        0.1811
      2 O         140.6505  140.9205  164.5156 O.3     1  UNL1       -0.3784
      3 H         141.2062  140.6650  163.7626 H       1  UNL1        0.2106
      4 C         138.9273  138.6002  165.3197 C.3     1  UNL1        0.4197
      5 F         138.0657  137.4400  165.7217 F       1  UNL1       -0.1676
      6 F         137.7334  139.5064  165.3763 F       1  UNL1       -0.1676
      7 F         140.1212  137.6939  165.2630 F       1  UNL1       -0.1676
      8 C         140.3957  138.9311  163.8248 C.3     1  UNL1        0.0807
      9 C         138.1945  140.4352  157.9515 C.2     1  UNL1        0.1857
     10 C         138.1444  140.8398  159.3950 C.2     1  UNL1        0.0359
     11 C         138.9198  140.0645  160.4186 C.2     1  UNL1        0.0095
     12 C         139.0629  140.2255  161.9031 C.2     1  UNL1        0.0124
     13 C         139.9769  139.1452  162.4004 C.2     1  UNL1        0.0568
     14 N         140.3987  138.3165  161.2235 N.2     1  UNL1       -0.2661
     15 C         139.7454  138.8847  159.9986 C.3     1  UNL1        0.1661
     16 C         139.7956  138.4801  158.5550 C.2     1  UNL1        0.1025
     17 N         139.0201  139.2554  157.5315 N.2     1  UNL1       -0.2281
     18 S         137.4191  141.2105  156.9280 S.O2    1  UNL1        0.0250
     19 O         137.1891  139.9503  156.1477 O.2     1  UNL1       -0.1672
     20 O         137.6492  142.4708  157.7082 O.2     1  UNL1       -0.1672
     21 C         136.9245  143.4446  155.6974 C.3     1  UNL1        0.0276
     22 C         136.6437  141.9858  155.9044 C.3     1  UNL1        0.1577
     23 C         139.1823  140.5896  166.0104 C.3     1  UNL1        0.0398
     24 C         140.0624  141.2300  167.0425 C.3     1  UNL1        0.0216
     25 C         139.9720  139.9935  167.8867 C.3     1  UNL1        0.0045
     26 C         140.1527  142.4666  166.1982 C.3     1  UNL1        0.0045
     27 C         140.9425  141.8704  168.0747 C.ar    1  UNL1       -0.0182
     28 C         140.3748  142.8921  169.0148 C.ar    1  UNL1       -0.0018
     29 C         141.2549  143.5325  170.0469 C.ar    1  UNL1        0.0293
     30 C         142.7027  143.1511  170.1390 C.ar    1  UNL1        0.1403
     31 F         143.5828  143.7915  171.1711 F       1  UNL1       -0.2042
     32 C         143.2704  142.1294  169.1989 C.ar    1  UNL1        0.0338
     33 C         142.3902  141.4891  168.1667 C.ar    1  UNL1        0.0514
     34 C         142.9579  140.4673  167.2265 C.2     1  UNL1        0.2425
     35 N         143.2834  140.8481  165.8126 N.am    1  UNL1       -0.3253
     36 O         143.2001  139.0649  167.7003 O.2     1  UNL1       -0.2704
     37 H         143.1245  141.7686  165.5017 H       1  UNL1        0.1453
     38 H         143.6560  140.1776  165.1956 H       1  UNL1        0.1453
@<TRIPOS>BOND
     1    21    22    1
     2    22    18    1
     3    18    19    2
     4    18    20    2
     5    18     9    1
     6     9    10    2
     7    10    11    1
     8    11    12    2
     9    12    13    1
    10    13     8    1
    11     8     1    1
    12     1     2    1
    13     1    23    1
    14    23    24    1
    15    24    25    1
    16    24    26    1
    17    24    27    1
    18    27    28   ar
    19    28    29   ar
    20    29    30   ar
    21    30    31    1
    22    30    32   ar
    23    32    33   ar
    24    33    34    1
    25    34    35   am
    26    34    36    2
    27     1     4    1
    28     4     5    1
    29     4     6    1
    30     4     7    1
    31    13    14    2
    32    14    15    1
    33    15    16    1
    34    16    17    2
    35    17     9    1
    36    15    11    1
    37    33    27   ar
    38     2     3    1
    39    35    37    1
    40    35    38    1
@<TRIPOS>MOLECULE
*****
 38 40 0 0 0
SMALL
GASTEIGER

@<TRIPOS>ATOM
      1 C         139.3378  139.2374  165.1402 C.3     1  UNL1        0.1811
      2 O         140.1330  140.3817  164.5852 O.3     1  UNL1       -0.3784
      3 H         139.5506  140.9591  164.0672 H       1  UNL1        0.2106
      4 C         138.5425  138.0930  165.6952 C.3     1  UNL1        0.4197
      5 F         137.7472  136.9487  166.2502 F       1  UNL1       -0.1676
      6 F         139.5862  137.1317  165.2088 F       1  UNL1       -0.1676
      7 F         137.4988  139.0543  166.1815 F       1  UNL1       -0.1676
      8 C         138.1013  139.7798  164.4868 C.3     1  UNL1        0.0807
      9 C         138.1262  141.2666  158.2105 C.2     1  UNL1        0.1857
     10 C         137.8556  140.1570  159.1828 C.2     1  UNL1        0.0359
     11 C         138.0266  140.3912  160.6546 C.2     1  UNL1        0.0095
     12 C         137.8354  139.4951  161.8423 C.2     1  UNL1        0.0124
     13 C         138.1589  140.2853  163.0757 C.2     1  UNL1        0.0568
     14 N         138.5499  141.6695  162.6503 N.2     1  UNL1       -0.2661
     15 C         138.4682  141.7349  161.1539 C.3     1  UNL1        0.1661
     16 C         138.7388  142.8446  160.1815 C.2     1  UNL1        0.1025
     17 N         138.5678  142.6104  158.7098 N.2     1  UNL1       -0.2281
     18 S         137.9553  141.0325  156.7388 S.O2    1  UNL1        0.0250
     19 O         138.2974  139.5845  156.9295 O.2     1  UNL1       -0.1672
     20 O         137.6131  142.4805  156.5481 O.2     1  UNL1       -0.1672
     21 C         136.6923  139.8964  154.7730 C.3     1  UNL1        0.0276
     22 C         137.7843  140.7982  155.2671 C.3     1  UNL1        0.1577
     23 C         140.5742  138.6950  165.7935 C.3     1  UNL1        0.0398
     24 C         141.3586  139.5519  166.7425 C.3     1  UNL1        0.0216
     25 C         142.6368  139.0528  166.1366 C.3     1  UNL1        0.0045
     26 C         140.0803  140.0511  167.3483 C.3     1  UNL1        0.0045
     27 C         142.1430  140.4088  167.6914 C.ar    1  UNL1       -0.0182
     28 C         142.5102  139.8836  169.0476 C.ar    1  UNL1       -0.0018
     29 C         143.2946  140.7405  169.9965 C.ar    1  UNL1        0.0293
     30 C         143.7118  142.1226  169.5892 C.ar    1  UNL1        0.1403
     31 F         144.4962  142.9795  170.5381 F       1  UNL1       -0.2042
     32 C         143.3445  142.6478  168.2329 C.ar    1  UNL1        0.0338
     33 C         142.5601  141.7908  167.2840 C.ar    1  UNL1        0.0514
     34 C         142.1929  142.3160  165.9278 C.2     1  UNL1        0.2425
     35 N         143.1018  142.0753  164.7590 N.am    1  UNL1       -0.3253
     36 O         140.9168  143.0817  165.7404 O.2     1  UNL1       -0.2704
     37 H         143.9393  141.5727  164.8820 H       1  UNL1        0.1453
     38 H         142.8607  142.4200  163.8689 H       1  UNL1        0.1453
@<TRIPOS>BOND
     1    21    22    1
     2    22    18    1
     3    18    19    2
     4    18    20    2
     5    18     9    1
     6     9    10    2
     7    10    11    1
     8    11    12    2
     9    12    13    1
    10    13     8    1
    11     8     1    1
    12     1     2    1
    13     1    23    1
    14    23    24    1
    15    24    25    1
    16    24    26    1
    17    24    27    1
    18    27    28   ar
    19    28    29   ar
    20    29    30   ar
    21    30    31    1
    22    30    32   ar
    23    32    33   ar
    24    33    34    1
    25    34    35   am
    26    34    36    2
    27     1     4    1
    28     4     5    1
    29     4     6    1
    30     4     7    1
    31    13    14    2
    32    14    15    1
    33    15    16    1
    34    16    17    2
    35    17     9    1
    36    15    11    1
    37    33    27   ar
    38     2     3    1
    39    35    37    1
    40    35    38    1
