@<TRIPOS>MOLECULE
*****
 27 30 0 0 0
SMALL
GASTEIGER

@<TRIPOS>ATOM
      1 C         138.8841  139.6796  168.2696 C.2     1  UNL1        0.1571
      2 N         138.2902  139.9098  169.6277 N.2     1  UNL1       -0.1436
      3 N         139.1740  140.8734  170.3627 N.2     1  UNL1       -0.1519
      4 C         140.3140  141.2389  169.4590 C.2     1  UNL1        0.0865
      5 C         141.4920  142.1482  169.6468 C.3     1  UNL1        0.0736
      6 C         142.4909  142.3197  168.5411 C.2     1  UNL1       -0.0196
      7 C         142.3117  141.5819  167.2474 C.2     1  UNL1       -0.0016
      8 C         141.1337  140.6726  167.0595 C.2     1  UNL1        0.0027
      9 C         140.1348  140.5011  168.1653 C.2     1  UNL1        0.0395
     10 C         143.3107  141.7534  166.1416 C.ar    1  UNL1        0.0294
     11 C         143.8363  143.1188  165.8108 C.ar    1  UNL1        0.0024
     12 C         144.8352  143.2903  164.7050 C.ar    1  UNL1        0.0025
     13 C         145.3085  142.0964  163.9300 C.ar    1  UNL1        0.0320
     14 C         144.7829  140.7310  164.2608 C.ar    1  UNL1        0.1674
     15 F         145.2562  139.5371  163.4859 F       1  UNL1       -0.2018
     16 C         143.7840  140.5595  165.3666 C.ar    1  UNL1        0.1673
     17 F         143.2583  139.1941  165.6974 F       1  UNL1       -0.2018
     18 O         137.0238  138.0739  167.4266 O.2     1  UNL1       -0.2684
     19 C         138.3253  138.7851  167.2030 C.2     1  UNL1        0.2654
     20 N         139.0682  138.6018  165.9128 N.am    1  UNL1       -0.2995
     21 H         139.9225  139.0686  165.7660 H       1  UNL1        0.1498
     22 C         138.5094  137.7073  164.8462 C.3     1  UNL1        0.0923
     23 C         139.0567  137.7714  163.4511 C.3     1  UNL1        0.0517
     24 C         138.2954  138.1742  162.2230 C.3     1  UNL1        0.0363
     25 C         139.2296  138.0957  161.0520 C.3     1  UNL1        0.1423
     26 O         140.5683  137.6442  161.5565 O.3     1  UNL1       -0.3537
     27 C         140.4613  137.4438  163.0392 C.3     1  UNL1        0.1439
@<TRIPOS>BOND
     1    18    19    2
     2    19    20   am
     3    20    22    1
     4    22    23    1
     5    23    24    1
     6    24    25    1
     7    25    26    1
     8    26    27    1
     9    19     1    1
    10     1     2    2
    11     2     3    1
    12     3     4    2
    13     4     5    1
    14     5     6    1
    15     6     7    2
    16     7    10    1
    17    10    11   ar
    18    11    12   ar
    19    12    13   ar
    20    13    14   ar
    21    14    15    1
    22    14    16   ar
    23    16    17    1
    24     7     8    1
    25     8     9    2
    26    27    23    1
    27     9     1    1
    28     9     4    1
    29    16    10   ar
    30    20    21    1
@<TRIPOS>MOLECULE
*****
 27 30 0 0 0
SMALL
GASTEIGER

@<TRIPOS>ATOM
      1 C         140.0194  140.7624  170.3313 C.2     1  UNL1        0.1571
      2 N         140.4193  141.3086  171.6699 N.2     1  UNL1       -0.1436
      3 N         141.6955  142.0770  171.4945 N.2     1  UNL1       -0.1519
      4 C         142.0844  142.0057  170.0475 C.2     1  UNL1        0.0865
      5 C         143.2479  142.5756  169.2916 C.3     1  UNL1        0.0736
      6 C         143.3755  142.3330  167.8169 C.2     1  UNL1       -0.0196
      7 C         142.3396  141.5206  167.0981 C.2     1  UNL1       -0.0016
      8 C         141.1761  140.9507  167.8539 C.2     1  UNL1        0.0027
      9 C         141.0485  141.1932  169.3286 C.2     1  UNL1        0.0395
     10 C         142.4673  141.2781  165.6232 C.ar    1  UNL1        0.0294
     11 C         141.9038  142.2693  164.6486 C.ar    1  UNL1        0.0024
     12 C         142.0315  142.0268  163.1738 C.ar    1  UNL1        0.0025
     13 C         142.7226  140.7930  162.6737 C.ar    1  UNL1        0.0320
     14 C         143.2861  139.8017  163.6484 C.ar    1  UNL1        0.1674
     15 F         143.9772  138.5679  163.1483 F       1  UNL1       -0.2018
     16 C         143.1584  140.0443  165.1231 C.ar    1  UNL1        0.1673
     17 F         143.7218  139.0530  166.0979 F       1  UNL1       -0.2018
     18 O         138.4983  139.5079  168.6394 O.2     1  UNL1       -0.2684
     19 C         138.8038  139.9314  170.0455 C.2     1  UNL1        0.2654
     20 N         137.8936  139.5237  171.1661 N.am    1  UNL1       -0.2995
     21 H         138.0940  139.8016  172.0890 H       1  UNL1        0.1498
     22 C         136.6780  138.6926  170.8803 C.3     1  UNL1        0.0923
     23 C         136.1157  137.7960  171.9433 C.3     1  UNL1        0.0517
     24 C         136.7687  136.5621  172.4921 C.3     1  UNL1        0.0363
     25 C         135.8582  135.9794  173.5321 C.3     1  UNL1        0.1423
     26 O         134.6426  136.8532  173.6260 O.3     1  UNL1       -0.3537
     27 C         134.8018  137.9759  172.6441 C.3     1  UNL1        0.1439
@<TRIPOS>BOND
     1    18    19    2
     2    19    20   am
     3    20    22    1
     4    22    23    1
     5    23    24    1
     6    24    25    1
     7    25    26    1
     8    26    27    1
     9    19     1    1
    10     1     2    2
    11     2     3    1
    12     3     4    2
    13     4     5    1
    14     5     6    1
    15     6     7    2
    16     7    10    1
    17    10    11   ar
    18    11    12   ar
    19    12    13   ar
    20    13    14   ar
    21    14    15    1
    22    14    16   ar
    23    16    17    1
    24     7     8    1
    25     8     9    2
    26    27    23    1
    27     9     1    1
    28     9     4    1
    29    16    10   ar
    30    20    21    1
@<TRIPOS>MOLECULE
*****
 27 30 0 0 0
SMALL
GASTEIGER

@<TRIPOS>ATOM
      1 C         143.7481  141.5123  163.7287 C.2     1  UNL1        0.1571
      2 N         144.4856  140.5954  162.7984 N.2     1  UNL1       -0.1436
      3 N         144.6368  139.2676  163.4795 N.2     1  UNL1       -0.1519
      4 C         143.9928  139.3638  164.8309 C.2     1  UNL1        0.0865
      5 C         143.8356  138.3674  165.9410 C.3     1  UNL1        0.0736
      6 C         143.1291  138.7583  167.2051 C.2     1  UNL1       -0.0196
      7 C         142.5799  140.1456  167.3591 C.2     1  UNL1       -0.0016
      8 C         142.7371  141.1420  166.2490 C.2     1  UNL1        0.0027
      9 C         143.4436  140.7511  164.9849 C.2     1  UNL1        0.0395
     10 C         141.8734  140.5365  168.6233 C.ar    1  UNL1        0.0294
     11 C         142.6369  141.1864  169.7389 C.ar    1  UNL1        0.0024
     12 C         141.9304  141.5773  171.0032 C.ar    1  UNL1        0.0025
     13 C         140.4604  141.3182  171.1516 C.ar    1  UNL1        0.0320
     14 C         139.6969  140.6683  170.0359 C.ar    1  UNL1        0.1674
     15 F         138.2269  140.4092  170.1844 F       1  UNL1       -0.2018
     16 C         140.4034  140.2774  168.7718 C.ar    1  UNL1        0.1673
     17 F         139.6399  139.6275  167.6561 F       1  UNL1       -0.2018
     18 O         144.4123  143.8921  162.9253 O.2     1  UNL1       -0.2684
     19 C         143.3799  142.9397  163.4516 C.2     1  UNL1        0.2654
     20 N         141.9790  143.4148  163.7008 N.am    1  UNL1       -0.2995
     21 H         141.3013  142.7898  164.0462 H       1  UNL1        0.1498
     22 C         141.6107  144.8423  163.4237 C.3     1  UNL1        0.0923
     23 C         140.9600  145.2099  162.1232 C.3     1  UNL1        0.0517
     24 C         141.3560  144.7081  160.7662 C.3     1  UNL1        0.0363
     25 C         140.4397  145.3321  159.7557 C.3     1  UNL1        0.1423
     26 O         139.4774  146.2195  160.4882 O.3     1  UNL1       -0.3537
     27 C         139.7990  146.1440  161.9513 C.3     1  UNL1        0.1439
@<TRIPOS>BOND
     1    18    19    2
     2    19    20   am
     3    20    22    1
     4    22    23    1
     5    23    24    1
     6    24    25    1
     7    25    26    1
     8    26    27    1
     9    19     1    1
    10     1     2    2
    11     2     3    1
    12     3     4    2
    13     4     5    1
    14     5     6    1
    15     6     7    2
    16     7    10    1
    17    10    11   ar
    18    11    12   ar
    19    12    13   ar
    20    13    14   ar
    21    14    15    1
    22    14    16   ar
    23    16    17    1
    24     7     8    1
    25     8     9    2
    26    27    23    1
    27     9     1    1
    28     9     4    1
    29    16    10   ar
    30    20    21    1
@<TRIPOS>MOLECULE
*****
 27 30 0 0 0
SMALL
GASTEIGER

@<TRIPOS>ATOM
      1 C         141.9262  141.8048  169.2679 C.2     1  UNL1        0.1571
      2 N         141.6721  141.9191  170.7417 N.2     1  UNL1       -0.1436
      3 N         140.3839  141.2135  171.0461 N.2     1  UNL1       -0.1519
      4 C         139.8418  140.6631  169.7603 C.2     1  UNL1        0.0865
      5 C         138.6034  139.8764  169.4483 C.3     1  UNL1        0.0736
      6 C         138.3182  139.4551  168.0372 C.2     1  UNL1       -0.0196
      7 C         139.2714  139.8206  166.9382 C.2     1  UNL1       -0.0016
      8 C         140.5098  140.6073  167.2502 C.2     1  UNL1        0.0027
      9 C         140.7950  141.0286  168.6613 C.2     1  UNL1        0.0395
     10 C         138.9861  139.3993  165.5271 C.ar    1  UNL1        0.0294
     11 C         139.3908  138.0340  165.0556 C.ar    1  UNL1        0.0024
     12 C         139.1055  137.6127  163.6445 C.ar    1  UNL1        0.0025
     13 C         138.4156  138.5567  162.7049 C.ar    1  UNL1        0.0320
     14 C         138.0109  139.9221  163.1764 C.ar    1  UNL1        0.1674
     15 F         137.3210  140.8661  162.2368 F       1  UNL1       -0.2018
     16 C         138.2962  140.3433  164.5875 C.ar    1  UNL1        0.1673
     17 F         137.8916  141.7086  165.0590 F       1  UNL1       -0.2018
     18 O         144.3152  142.8256  169.2880 O.2     1  UNL1       -0.2684
     19 C         143.1045  142.3679  168.5300 C.2     1  UNL1        0.2654
     20 N         143.0721  142.4734  167.0340 N.am    1  UNL1       -0.2995
     21 H         142.2775  142.1730  166.5364 H       1  UNL1        0.1498
     22 C         144.2505  143.0365  166.2961 C.3     1  UNL1        0.0923
     23 C         144.1432  143.3385  164.8308 C.3     1  UNL1        0.0517
     24 C         143.5921  144.5965  164.2279 C.3     1  UNL1        0.0363
     25 C         143.6765  144.4710  162.7355 C.3     1  UNL1        0.1423
     26 O         144.2799  143.1353  162.4161 O.3     1  UNL1       -0.3537
     27 C         144.5683  142.4354  163.7111 C.3     1  UNL1        0.1439
@<TRIPOS>BOND
     1    18    19    2
     2    19    20   am
     3    20    22    1
     4    22    23    1
     5    23    24    1
     6    24    25    1
     7    25    26    1
     8    26    27    1
     9    19     1    1
    10     1     2    2
    11     2     3    1
    12     3     4    2
    13     4     5    1
    14     5     6    1
    15     6     7    2
    16     7    10    1
    17    10    11   ar
    18    11    12   ar
    19    12    13   ar
    20    13    14   ar
    21    14    15    1
    22    14    16   ar
    23    16    17    1
    24     7     8    1
    25     8     9    2
    26    27    23    1
    27     9     1    1
    28     9     4    1
    29    16    10   ar
    30    20    21    1
@<TRIPOS>MOLECULE
*****
 27 30 0 0 0
SMALL
GASTEIGER

@<TRIPOS>ATOM
      1 C         140.6815  139.5050  163.4862 C.2     1  UNL1        0.1571
      2 N         139.8658  138.5741  162.6389 N.2     1  UNL1       -0.1436
      3 N         138.7801  137.9968  163.4980 N.2     1  UNL1       -0.1519
      4 C         138.9248  138.5710  164.8762 C.2     1  UNL1        0.0865
      5 C         138.1384  138.3654  166.1368 C.3     1  UNL1        0.0736
      6 C         138.5271  139.0920  167.3901 C.2     1  UNL1       -0.0196
      7 C         139.7023  140.0242  167.3828 C.2     1  UNL1       -0.0016
      8 C         140.4887  140.2297  166.1222 C.2     1  UNL1        0.0027
      9 C         140.1000  139.5031  164.8689 C.2     1  UNL1        0.0395
     10 C         140.0910  140.7508  168.6362 C.ar    1  UNL1        0.0294
     11 C         140.3266  139.9854  169.9045 C.ar    1  UNL1        0.0024
     12 C         140.7153  140.7120  171.1579 C.ar    1  UNL1        0.0025
     13 C         140.8684  142.2041  171.1430 C.ar    1  UNL1        0.0320
     14 C         140.6327  142.9696  169.8746 C.ar    1  UNL1        0.1674
     15 F         140.7857  144.4617  169.8597 F       1  UNL1       -0.2018
     16 C         140.2440  142.2429  168.6213 C.ar    1  UNL1        0.1673
     17 F         140.0083  143.0084  167.3530 F       1  UNL1       -0.2018
     18 O         141.8672  140.9437  161.6766 O.2     1  UNL1       -0.2684
     19 C         141.8702  140.2986  163.0308 C.2     1  UNL1        0.2654
     20 N         143.0619  140.4470  163.9296 N.am    1  UNL1       -0.2995
     21 H         143.0640  140.0236  164.8184 H       1  UNL1        0.1498
     22 C         144.2506  141.2406  163.4741 C.3     1  UNL1        0.0923
     23 C         144.1740  142.7373  163.4122 C.3     1  UNL1        0.0517
     24 C         143.7931  143.6481  164.5415 C.3     1  UNL1        0.0363
     25 C         143.8485  145.0598  164.0374 C.3     1  UNL1        0.1423
     26 O         144.2636  145.0214  162.5964 O.3     1  UNL1       -0.3537
     27 C         144.4648  143.5860  162.2101 C.3     1  UNL1        0.1439
@<TRIPOS>BOND
     1    18    19    2
     2    19    20   am
     3    20    22    1
     4    22    23    1
     5    23    24    1
     6    24    25    1
     7    25    26    1
     8    26    27    1
     9    19     1    1
    10     1     2    2
    11     2     3    1
    12     3     4    2
    13     4     5    1
    14     5     6    1
    15     6     7    2
    16     7    10    1
    17    10    11   ar
    18    11    12   ar
    19    12    13   ar
    20    13    14   ar
    21    14    15    1
    22    14    16   ar
    23    16    17    1
    24     7     8    1
    25     8     9    2
    26    27    23    1
    27     9     1    1
    28     9     4    1
    29    16    10   ar
    30    20    21    1
@<TRIPOS>MOLECULE
*****
 27 30 0 0 0
SMALL
GASTEIGER

@<TRIPOS>ATOM
      1 C         142.8310  141.6411  169.4611 C.2     1  UNL1        0.1571
      2 N         143.2202  140.2670  169.9198 N.2     1  UNL1       -0.1436
      3 N         142.9204  139.3052  168.8085 N.2     1  UNL1       -0.1519
      4 C         142.3459  140.0848  167.6630 C.2     1  UNL1        0.0865
      5 C         141.8659  139.6666  166.3049 C.3     1  UNL1        0.0736
      6 C         141.3307  140.6922  165.3500 C.2     1  UNL1       -0.0196
      7 C         141.2755  142.1359  165.7533 C.2     1  UNL1       -0.0016
      8 C         141.7555  142.5540  167.1115 C.2     1  UNL1        0.0027
      9 C         142.2906  141.5285  168.0664 C.2     1  UNL1        0.0395
     10 C         140.7402  143.1614  164.7984 C.ar    1  UNL1        0.0294
     11 C         141.6701  144.1523  164.1632 C.ar    1  UNL1        0.0024
     12 C         141.1349  145.1778  163.2083 C.ar    1  UNL1        0.0025
     13 C         139.6698  145.2124  162.8885 C.ar    1  UNL1        0.0320
     14 C         138.7399  144.2215  163.5237 C.ar    1  UNL1        0.1674
     15 F         137.2748  144.2561  163.2040 F       1  UNL1       -0.2018
     16 C         139.2751  143.1960  164.4786 C.ar    1  UNL1        0.1673
     17 F         138.3453  142.2050  165.1138 F       1  UNL1       -0.2018
     18 O         141.7311  143.6636  170.6651 O.2     1  UNL1       -0.2684
     19 C         142.9596  142.9058  170.2574 C.2     1  UNL1        0.2654
     20 N         144.3169  143.4127  170.6460 N.am    1  UNL1       -0.2995
     21 H         145.1233  142.9154  170.3784 H       1  UNL1        0.1498
     22 C         144.4455  144.6774  171.4422 C.3     1  UNL1        0.0923
     23 C         145.7992  145.1557  171.8767 C.3     1  UNL1        0.0517
     24 C         146.0780  146.1164  172.9944 C.3     1  UNL1        0.0363
     25 C         147.5629  146.3117  173.0782 C.3     1  UNL1        0.1423
     26 O         148.2018  145.4715  172.0123 O.3     1  UNL1       -0.3537
     27 C         147.1117  144.7571  171.2698 C.3     1  UNL1        0.1439
@<TRIPOS>BOND
     1    18    19    2
     2    19    20   am
     3    20    22    1
     4    22    23    1
     5    23    24    1
     6    24    25    1
     7    25    26    1
     8    26    27    1
     9    19     1    1
    10     1     2    2
    11     2     3    1
    12     3     4    2
    13     4     5    1
    14     5     6    1
    15     6     7    2
    16     7    10    1
    17    10    11   ar
    18    11    12   ar
    19    12    13   ar
    20    13    14   ar
    21    14    15    1
    22    14    16   ar
    23    16    17    1
    24     7     8    1
    25     8     9    2
    26    27    23    1
    27     9     1    1
    28     9     4    1
    29    16    10   ar
    30    20    21    1
@<TRIPOS>MOLECULE
*****
 27 30 0 0 0
SMALL
GASTEIGER

@<TRIPOS>ATOM
      1 C         141.4342  141.1527  168.2442 C.2     1  UNL1        0.1571
      2 N         141.1666  140.7274  169.6575 N.2     1  UNL1       -0.1436
      3 N         139.9175  139.8970  169.6629 N.2     1  UNL1       -0.1519
      4 C         139.4131  139.8091  168.2530 C.2     1  UNL1        0.0865
      5 C         138.2214  139.1226  167.6543 C.3     1  UNL1        0.0736
      6 C         137.9671  139.2122  166.1788 C.2     1  UNL1       -0.0196
      7 C         138.9045  139.9884  165.3019 C.2     1  UNL1       -0.0016
      8 C         140.0962  140.6748  165.9006 C.2     1  UNL1        0.0027
      9 C         140.3505  140.5852  167.3762 C.2     1  UNL1        0.0395
     10 C         138.6501  140.0780  163.8263 C.ar    1  UNL1        0.0294
     11 C         138.1305  141.3529  163.2309 C.ar    1  UNL1        0.0024
     12 C         137.8762  141.4425  161.7553 C.ar    1  UNL1        0.0025
     13 C         138.1415  140.2572  160.8752 C.ar    1  UNL1        0.0320
     14 C         138.6611  138.9822  161.4707 C.ar    1  UNL1        0.1674
     15 F         138.9263  137.7969  160.5906 F       1  UNL1       -0.2018
     16 C         138.9154  138.8927  162.9462 C.ar    1  UNL1        0.1673
     17 F         139.4350  137.6177  163.5417 F       1  UNL1       -0.2018
     18 O         143.4588  142.6892  168.7831 O.2     1  UNL1       -0.2684
     19 C         142.5838  141.9974  167.7803 C.2     1  UNL1        0.2654
     20 N         142.8583  142.1502  166.3135 N.am    1  UNL1       -0.2995
     21 H         142.2839  141.6961  165.6553 H       1  UNL1        0.1498
     22 C         144.0078  142.9948  165.8496 C.3     1  UNL1        0.0923
     23 C         144.0894  143.4282  164.4160 C.3     1  UNL1        0.0517
     24 C         144.4433  142.5541  163.2494 C.3     1  UNL1        0.0363
     25 C         144.4040  143.3975  162.0095 C.3     1  UNL1        0.1423
     26 O         144.0258  144.7928  162.4099 O.3     1  UNL1       -0.3537
     27 C         143.8314  144.8117  163.8971 C.3     1  UNL1        0.1439
@<TRIPOS>BOND
     1    18    19    2
     2    19    20   am
     3    20    22    1
     4    22    23    1
     5    23    24    1
     6    24    25    1
     7    25    26    1
     8    26    27    1
     9    19     1    1
    10     1     2    2
    11     2     3    1
    12     3     4    2
    13     4     5    1
    14     5     6    1
    15     6     7    2
    16     7    10    1
    17    10    11   ar
    18    11    12   ar
    19    12    13   ar
    20    13    14   ar
    21    14    15    1
    22    14    16   ar
    23    16    17    1
    24     7     8    1
    25     8     9    2
    26    27    23    1
    27     9     1    1
    28     9     4    1
    29    16    10   ar
    30    20    21    1
@<TRIPOS>MOLECULE
*****
 27 30 0 0 0
SMALL
GASTEIGER

@<TRIPOS>ATOM
      1 C         143.1179  140.7063  162.8824 C.2     1  UNL1        0.1571
      2 N         143.9757  139.6723  162.2155 N.2     1  UNL1       -0.1436
      3 N         144.3154  138.6248  163.2340 N.2     1  UNL1       -0.1519
      4 C         143.6675  139.0115  164.5305 C.2     1  UNL1        0.0865
      5 C         143.6559  138.3584  165.8807 C.3     1  UNL1        0.0736
      6 C         142.9042  138.9918  167.0137 C.2     1  UNL1       -0.0196
      7 C         142.1641  140.2783  166.7964 C.2     1  UNL1       -0.0016
      8 C         142.1757  140.9314  165.4462 C.2     1  UNL1        0.0027
      9 C         142.9274  140.2980  164.3132 C.2     1  UNL1        0.0395
     10 C         141.4124  140.9116  167.9295 C.ar    1  UNL1        0.0294
     11 C         140.1727  140.2587  168.4650 C.ar    1  UNL1        0.0024
     12 C         139.4210  140.8920  169.5981 C.ar    1  UNL1        0.0025
     13 C         139.9090  142.1784  170.1956 C.ar    1  UNL1        0.0320
     14 C         141.1488  142.8314  169.6601 C.ar    1  UNL1        0.1674
     15 F         141.6368  144.1178  170.2577 F       1  UNL1       -0.2018
     16 C         141.9004  142.1980  168.5271 C.ar    1  UNL1        0.1673
     17 F         143.1402  142.8510  167.9916 F       1  UNL1       -0.2018
     18 O         141.6664  141.8034  161.0278 O.2     1  UNL1       -0.2684
     19 C         142.5502  141.9334  162.2328 C.2     1  UNL1        0.2654
     20 N         142.8663  143.2905  162.7881 N.am    1  UNL1       -0.2995
     21 H         143.4463  143.3759  163.5790 H       1  UNL1        0.1498
     22 C         142.2986  144.5176  162.1385 C.3     1  UNL1        0.0923
     23 C         140.8342  144.8200  162.2577 C.3     1  UNL1        0.0517
     24 C         139.8605  144.1222  163.1604 C.3     1  UNL1        0.0363
     25 C         138.5109  144.7442  162.9558 C.3     1  UNL1        0.1423
     26 O         138.6507  145.8265  161.9265 O.3     1  UNL1       -0.3537
     27 C         140.0866  145.8732  161.4951 C.3     1  UNL1        0.1439
@<TRIPOS>BOND
     1    18    19    2
     2    19    20   am
     3    20    22    1
     4    22    23    1
     5    23    24    1
     6    24    25    1
     7    25    26    1
     8    26    27    1
     9    19     1    1
    10     1     2    2
    11     2     3    1
    12     3     4    2
    13     4     5    1
    14     5     6    1
    15     6     7    2
    16     7    10    1
    17    10    11   ar
    18    11    12   ar
    19    12    13   ar
    20    13    14   ar
    21    14    15    1
    22    14    16   ar
    23    16    17    1
    24     7     8    1
    25     8     9    2
    26    27    23    1
    27     9     1    1
    28     9     4    1
    29    16    10   ar
    30    20    21    1
@<TRIPOS>MOLECULE
*****
 27 30 0 0 0
SMALL
GASTEIGER

@<TRIPOS>ATOM
      1 C         139.0794  138.6575  165.5737 C.2     1  UNL1        0.1571
      2 N         138.5849  137.4262  164.8743 N.2     1  UNL1       -0.1436
      3 N         139.1411  137.4296  163.4812 N.2     1  UNL1       -0.1519
      4 C         139.9793  138.6630  163.3197 C.2     1  UNL1        0.0865
      5 C         140.7723  139.1932  162.1621 C.3     1  UNL1        0.0736
      6 C         141.5272  140.4822  162.2978 C.2     1  UNL1       -0.0196
      7 C         141.4890  141.2411  163.5911 C.2     1  UNL1       -0.0016
      8 C         140.6960  140.7110  164.7487 C.2     1  UNL1        0.0027
      9 C         139.9411  139.4220  164.6130 C.2     1  UNL1        0.0395
     10 C         142.2440  142.5302  163.7268 C.ar    1  UNL1        0.0294
     11 C         141.8833  143.7047  162.8663 C.ar    1  UNL1        0.0024
     12 C         142.6383  144.9938  163.0020 C.ar    1  UNL1        0.0025
     13 C         143.7539  145.1084  163.9982 C.ar    1  UNL1        0.0320
     14 C         144.1145  143.9338  164.8587 C.ar    1  UNL1        0.1674
     15 F         145.2301  144.0483  165.8548 F       1  UNL1       -0.2018
     16 C         143.3595  142.6448  164.7230 C.ar    1  UNL1        0.1673
     17 F         143.7202  141.4702  165.5835 F       1  UNL1       -0.2018
     18 O         137.5249  138.5416  167.6522 O.2     1  UNL1       -0.2684
     19 C         138.7669  139.0548  166.9861 C.2     1  UNL1        0.2654
     20 N         139.6967  139.9652  167.7322 N.am    1  UNL1       -0.2995
     21 H         140.5120  140.3021  167.2950 H       1  UNL1        0.1498
     22 C         139.3843  140.3625  169.1446 C.3     1  UNL1        0.0923
     23 C         140.1598  141.4651  169.8024 C.3     1  UNL1        0.0517
     24 C         140.3707  142.8445  169.2522 C.3     1  UNL1        0.0363
     25 C         141.2018  143.6138  170.2359 C.3     1  UNL1        0.1423
     26 O         141.5044  142.7098  171.3941 O.3     1  UNL1       -0.3537
     27 C         140.8604  141.3819  171.1261 C.3     1  UNL1        0.1439
@<TRIPOS>BOND
     1    18    19    2
     2    19    20   am
     3    20    22    1
     4    22    23    1
     5    23    24    1
     6    24    25    1
     7    25    26    1
     8    26    27    1
     9    19     1    1
    10     1     2    2
    11     2     3    1
    12     3     4    2
    13     4     5    1
    14     5     6    1
    15     6     7    2
    16     7    10    1
    17    10    11   ar
    18    11    12   ar
    19    12    13   ar
    20    13    14   ar
    21    14    15    1
    22    14    16   ar
    23    16    17    1
    24     7     8    1
    25     8     9    2
    26    27    23    1
    27     9     1    1
    28     9     4    1
    29    16    10   ar
    30    20    21    1
