@<TRIPOS>MOLECULE
*****
 22 24 0 0 0
SMALL
GASTEIGER

@<TRIPOS>ATOM
      1 C         138.3262  139.4612  165.8152 C.2     1  UNL1        0.1040
      2 N         137.4317  138.6005  166.6573 N.2     1  UNL1       -0.1483
      3 N         137.8333  138.7786  168.0915 N.2     1  UNL1       -0.1519
      4 C         138.9760  139.7494  168.1358 C.2     1  UNL1        0.0896
      5 C         139.7785  140.3036  169.2754 C.3     1  UNL1        0.1117
      6 C         140.8856  141.2798  169.0081 C.2     1  UNL1        0.1303
      7 C         141.1902  141.7016  167.6013 C.2     1  UNL1        0.0331
      8 C         140.3877  141.1473  166.4617 C.2     1  UNL1        0.0056
      9 C         139.2806  140.1712  166.7289 C.2     1  UNL1        0.0352
     10 C         138.1732  139.8458  161.3342 C.ar    1  UNL1        0.0684
     11 C         138.6651  138.5752  161.9616 C.ar    1  UNL1        0.0103
     12 C         138.7161  138.4470  163.4552 C.ar    1  UNL1        0.0022
     13 C         138.2752  139.5894  164.3215 C.ar    1  UNL1        0.0195
     14 C         137.7833  140.8600  163.6941 C.ar    1  UNL1        0.0022
     15 C         137.7323  140.9882  162.2005 C.ar    1  UNL1        0.0103
     16 N         138.0713  140.1022  158.3470 N.1     1  UNL1       -0.1908
     17 C         138.1223  139.9739  159.8405 C.1     1  UNL1        0.1004
     18 O         141.6881  141.8341  170.1478 O.2     1  UNL1       -0.4085
     19 C         143.1284  142.1997  169.9428 C.3     1  UNL1        0.5750
     20 F         144.5686  142.5653  169.7379 F       1  UNL1       -0.1328
     21 F         142.8014  143.6387  170.2119 F       1  UNL1       -0.1328
     22 F         143.4554  140.7607  169.6738 F       1  UNL1       -0.1328
@<TRIPOS>BOND
     1    16    17    3
     2    17    10    1
     3    10    11   ar
     4    11    12   ar
     5    12    13   ar
     6    13     1    1
     7     1     2    2
     8     2     3    1
     9     3     4    2
    10     4     5    1
    11     5     6    1
    12     6    18    1
    13    18    19    1
    14    19    20    1
    15    19    21    1
    16    19    22    1
    17     6     7    2
    18     7     8    1
    19     8     9    2
    20    13    14   ar
    21    14    15   ar
    22    15    10   ar
    23     9     1    1
    24     9     4    1
@<TRIPOS>MOLECULE
*****
 22 24 0 0 0
SMALL
GASTEIGER

@<TRIPOS>ATOM
      1 C         142.9375  138.7089  165.4607 C.2     1  UNL1        0.1040
      2 N         143.8337  137.9965  166.4299 N.2     1  UNL1       -0.1483
      3 N         143.4912  138.4693  167.8116 N.2     1  UNL1       -0.1519
      4 C         142.3832  139.4738  167.6964 C.2     1  UNL1        0.0896
      5 C         141.6417  140.2728  168.7268 C.3     1  UNL1        0.1117
      6 C         140.5580  141.2199  168.3042 C.2     1  UNL1        0.1303
      7 C         140.2158  141.3680  166.8513 C.2     1  UNL1        0.0331
      8 C         140.9573  140.5690  165.8209 C.2     1  UNL1        0.0056
      9 C         142.0410  139.6219  166.2435 C.2     1  UNL1        0.0352
     10 C         142.9380  138.1969  160.9899 C.ar    1  UNL1        0.0684
     11 C         141.7748  137.7075  161.8007 C.ar    1  UNL1        0.0103
     12 C         141.7747  137.8782  163.2910 C.ar    1  UNL1        0.0022
     13 C         142.9376  138.5382  163.9705 C.ar    1  UNL1        0.0195
     14 C         144.1009  139.0276  163.1596 C.ar    1  UNL1        0.0022
     15 C         144.1011  138.8569  161.6694 C.ar    1  UNL1        0.0103
     16 N         142.9383  137.8554  158.0095 N.1     1  UNL1       -0.1908
     17 C         142.9382  138.0262  159.4997 C.1     1  UNL1        0.1004
     18 O         139.8165  142.0190  169.3347 O.2     1  UNL1       -0.4085
     19 C         140.3520  143.3468  169.7822 C.3     1  UNL1        0.5750
     20 F         140.8875  144.6745  170.2297 F       1  UNL1       -0.1328
     21 F         140.7761  142.7366  171.0851 F       1  UNL1       -0.1328
     22 F         139.9279  143.9570  168.4792 F       1  UNL1       -0.1328
@<TRIPOS>BOND
     1    16    17    3
     2    17    10    1
     3    10    11   ar
     4    11    12   ar
     5    12    13   ar
     6    13     1    1
     7     1     2    2
     8     2     3    1
     9     3     4    2
    10     4     5    1
    11     5     6    1
    12     6    18    1
    13    18    19    1
    14    19    20    1
    15    19    21    1
    16    19    22    1
    17     6     7    2
    18     7     8    1
    19     8     9    2
    20    13    14   ar
    21    14    15   ar
    22    15    10   ar
    23     9     1    1
    24     9     4    1
@<TRIPOS>MOLECULE
*****
 22 24 0 0 0
SMALL
GASTEIGER

@<TRIPOS>ATOM
      1 C         140.2199  139.8890  167.6376 C.2     1  UNL1        0.1040
      2 N         138.9228  139.5436  168.3070 N.2     1  UNL1       -0.1483
      3 N         138.0870  138.7729  167.3285 N.2     1  UNL1       -0.1519
      4 C         138.8677  138.6419  166.0543 C.2     1  UNL1        0.0896
      5 C         138.5485  137.9837  164.7448 C.3     1  UNL1        0.1117
      6 C         139.5475  138.0153  163.6264 C.2     1  UNL1        0.1303
      7 C         140.8657  138.7050  163.8175 C.2     1  UNL1        0.0331
      8 C         141.1849  139.3632  165.1270 C.2     1  UNL1        0.0056
      9 C         140.1859  139.3317  166.2454 C.2     1  UNL1        0.0352
     10 C         143.6173  142.1924  169.4822 C.ar    1  UNL1        0.0684
     11 C         142.9574  141.0857  170.2500 C.ar    1  UNL1        0.0103
     12 C         141.8249  140.3179  169.6351 C.ar    1  UNL1        0.0022
     13 C         141.3524  140.6568  168.2525 C.ar    1  UNL1        0.0195
     14 C         142.0123  141.7636  167.4846 C.ar    1  UNL1        0.0022
     15 C         143.1448  142.5314  168.0995 C.ar    1  UNL1        0.0103
     16 N         145.8821  143.7280  170.7120 N.1     1  UNL1       -0.1908
     17 C         144.7497  142.9603  170.0971 C.1     1  UNL1        0.1004
     18 O         139.2283  137.3570  162.3168 O.2     1  UNL1       -0.4085
     19 C         138.8937  138.1946  161.1183 C.3     1  UNL1        0.5750
     20 F         138.5590  139.0322  159.9198 F       1  UNL1       -0.1328
     21 F         140.3053  138.0592  160.6295 F       1  UNL1       -0.1328
     22 F         137.4820  138.3301  161.6072 F       1  UNL1       -0.1328
@<TRIPOS>BOND
     1    16    17    3
     2    17    10    1
     3    10    11   ar
     4    11    12   ar
     5    12    13   ar
     6    13     1    1
     7     1     2    2
     8     2     3    1
     9     3     4    2
    10     4     5    1
    11     5     6    1
    12     6    18    1
    13    18    19    1
    14    19    20    1
    15    19    21    1
    16    19    22    1
    17     6     7    2
    18     7     8    1
    19     8     9    2
    20    13    14   ar
    21    14    15   ar
    22    15    10   ar
    23     9     1    1
    24     9     4    1
@<TRIPOS>MOLECULE
*****
 22 24 0 0 0
SMALL
GASTEIGER

@<TRIPOS>ATOM
      1 C         142.1924  138.8452  165.3475 C.2     1  UNL1        0.1040
      2 N         143.3732  138.0724  165.8560 N.2     1  UNL1       -0.1483
      3 N         143.5884  138.4470  167.2925 N.2     1  UNL1       -0.1519
      4 C         142.5407  139.4512  167.6717 C.2     1  UNL1        0.0896
      5 C         142.2608  140.1733  168.9562 C.3     1  UNL1        0.1117
      6 C         141.1182  141.1415  169.0387 C.2     1  UNL1        0.1303
      7 C         140.2554  141.3876  167.8366 C.2     1  UNL1        0.0331
      8 C         140.5353  140.6655  166.5520 C.2     1  UNL1        0.0056
      9 C         141.6779  139.6973  166.4696 C.2     1  UNL1        0.0352
     10 C         140.4920  138.6426  161.1860 C.ar    1  UNL1        0.0684
     11 C         141.6760  139.5184  161.4706 C.ar    1  UNL1        0.0103
     12 C         142.2428  139.5859  162.8578 C.ar    1  UNL1        0.0022
     13 C         141.6257  138.7777  163.9603 C.ar    1  UNL1        0.0195
     14 C         140.4416  137.9017  163.6757 C.ar    1  UNL1        0.0022
     15 C         139.8748  137.8342  162.2885 C.ar    1  UNL1        0.0103
     16 N         139.3586  138.5076  158.4116 N.1     1  UNL1       -0.1908
     17 C         139.9253  138.5751  159.7988 C.1     1  UNL1        0.1004
     18 O         140.8383  141.8637  170.3233 O.2     1  UNL1       -0.4085
     19 C         140.4989  143.3247  170.3038 C.3     1  UNL1        0.5750
     20 F         140.1596  144.7857  170.2843 F       1  UNL1       -0.1328
     21 F         139.1020  143.0062  170.7479 F       1  UNL1       -0.1328
     22 F         141.8958  143.6432  169.8597 F       1  UNL1       -0.1328
@<TRIPOS>BOND
     1    16    17    3
     2    17    10    1
     3    10    11   ar
     4    11    12   ar
     5    12    13   ar
     6    13     1    1
     7     1     2    2
     8     2     3    1
     9     3     4    2
    10     4     5    1
    11     5     6    1
    12     6    18    1
    13    18    19    1
    14    19    20    1
    15    19    21    1
    16    19    22    1
    17     6     7    2
    18     7     8    1
    19     8     9    2
    20    13    14   ar
    21    14    15   ar
    22    15    10   ar
    23     9     1    1
    24     9     4    1
@<TRIPOS>MOLECULE
*****
 22 24 0 0 0
SMALL
GASTEIGER

@<TRIPOS>ATOM
      1 C         139.3396  139.9114  164.8589 C.2     1  UNL1        0.1040
      2 N         138.0448  139.9843  164.1052 N.2     1  UNL1       -0.1483
      3 N         138.2731  139.4165  162.7358 N.2     1  UNL1       -0.1519
      4 C         139.7090  138.9927  162.6431 C.2     1  UNL1        0.0896
      5 C         140.5014  138.3679  161.5334 C.3     1  UNL1        0.1117
      6 C         141.9530  138.0489  161.7359 C.2     1  UNL1        0.1303
      7 C         142.6122  138.3548  163.0481 C.2     1  UNL1        0.0331
      8 C         141.8198  138.9797  164.1578 C.2     1  UNL1        0.0056
      9 C         140.3682  139.2986  163.9553 C.2     1  UNL1        0.0352
     10 C         140.0193  141.2895  169.0885 C.ar    1  UNL1        0.0684
     11 C         139.2522  140.0278  168.8249 C.ar    1  UNL1        0.0103
     12 C         139.0256  139.5684  167.4151 C.ar    1  UNL1        0.0022
     13 C         139.5662  140.3708  166.2688 C.ar    1  UNL1        0.0195
     14 C         140.3334  141.6326  166.5324 C.ar    1  UNL1        0.0022
     15 C         140.5599  142.0919  167.9423 C.ar    1  UNL1        0.0103
     16 N         140.4725  142.2082  171.9082 N.1     1  UNL1       -0.1908
     17 C         140.2459  141.7488  170.4984 C.1     1  UNL1        0.1004
     18 O         142.7456  137.4240  160.6261 O.2     1  UNL1       -0.4085
     19 C         142.9657  138.1752  159.3466 C.3     1  UNL1        0.5750
     20 F         143.1858  138.9263  158.0670 F       1  UNL1       -0.1328
     21 F         142.7118  136.9197  158.5659 F       1  UNL1       -0.1328
     22 F         143.2195  139.4306  160.1272 F       1  UNL1       -0.1328
@<TRIPOS>BOND
     1    16    17    3
     2    17    10    1
     3    10    11   ar
     4    11    12   ar
     5    12    13   ar
     6    13     1    1
     7     1     2    2
     8     2     3    1
     9     3     4    2
    10     4     5    1
    11     5     6    1
    12     6    18    1
    13    18    19    1
    14    19    20    1
    15    19    21    1
    16    19    22    1
    17     6     7    2
    18     7     8    1
    19     8     9    2
    20    13    14   ar
    21    14    15   ar
    22    15    10   ar
    23     9     1    1
    24     9     4    1
@<TRIPOS>MOLECULE
*****
 22 24 0 0 0
SMALL
GASTEIGER

@<TRIPOS>ATOM
      1 C         141.4733  138.4963  165.0699 C.2     1  UNL1        0.1040
      2 N         140.6575  137.2894  164.7123 N.2     1  UNL1       -0.1483
      3 N         140.9826  136.9131  163.2971 N.2     1  UNL1       -0.1519
      4 C         141.9993  137.8873  162.7802 C.2     1  UNL1        0.0896
      5 C         142.6881  138.0098  161.4534 C.3     1  UNL1        0.1117
      6 C         143.6801  139.1109  161.2222 C.2     1  UNL1        0.1303
      7 C         143.9833  140.0894  162.3179 C.2     1  UNL1        0.0331
      8 C         143.2946  139.9669  163.6447 C.2     1  UNL1        0.0056
      9 C         142.3025  138.8658  163.8759 C.2     1  UNL1        0.0352
     10 C         141.4389  140.6334  169.0300 C.ar    1  UNL1        0.0684
     11 C         140.2042  140.6120  168.1785 C.ar    1  UNL1        0.0103
     12 C         140.2157  139.8997  166.8585 C.ar    1  UNL1        0.0022
     13 C         141.4618  139.2087  166.3899 C.ar    1  UNL1        0.0195
     14 C         142.6966  139.2300  167.2415 C.ar    1  UNL1        0.0022
     15 C         142.6851  139.9424  168.5615 C.ar    1  UNL1        0.0103
     16 N         141.4160  142.0579  171.6700 N.1     1  UNL1       -0.1908
     17 C         141.4275  141.3457  170.3500 C.1     1  UNL1        0.1004
     18 O         144.3690  139.2335  159.8953 O.2     1  UNL1       -0.4085
     19 C         143.6921  139.9456  158.7619 C.3     1  UNL1        0.5750
     20 F         143.0153  140.6578  157.6284 F       1  UNL1       -0.1328
     21 F         143.1772  138.6347  158.2457 F       1  UNL1       -0.1328
     22 F         144.2070  141.2565  159.2781 F       1  UNL1       -0.1328
@<TRIPOS>BOND
     1    16    17    3
     2    17    10    1
     3    10    11   ar
     4    11    12   ar
     5    12    13   ar
     6    13     1    1
     7     1     2    2
     8     2     3    1
     9     3     4    2
    10     4     5    1
    11     5     6    1
    12     6    18    1
    13    18    19    1
    14    19    20    1
    15    19    21    1
    16    19    22    1
    17     6     7    2
    18     7     8    1
    19     8     9    2
    20    13    14   ar
    21    14    15   ar
    22    15    10   ar
    23     9     1    1
    24     9     4    1
@<TRIPOS>MOLECULE
*****
 22 24 0 0 0
SMALL
GASTEIGER

@<TRIPOS>ATOM
      1 C         140.4288  138.5057  164.6053 C.2     1  UNL1        0.1040
      2 N         141.2019  137.3070  164.1413 N.2     1  UNL1       -0.1483
      3 N         140.8848  137.0833  162.6924 N.2     1  UNL1       -0.1519
      4 C         139.9156  138.1437  162.2609 C.2     1  UNL1        0.0896
      5 C         139.2534  138.4224  160.9442 C.3     1  UNL1        0.1117
      6 C         138.3093  139.5802  160.8097 C.2     1  UNL1        0.1303
      7 C         138.0275  140.4593  161.9920 C.2     1  UNL1        0.0331
      8 C         138.6897  140.1807  163.3087 C.2     1  UNL1        0.0056
      9 C         139.6338  139.0229  163.4431 C.2     1  UNL1        0.0352
     10 C         140.4846  140.2453  168.7551 C.ar    1  UNL1        0.0684
     11 C         139.1791  139.8834  168.1110 C.ar    1  UNL1        0.0103
     12 C         139.1606  139.3035  166.7278 C.ar    1  UNL1        0.0022
     13 C         140.4474  139.0856  165.9885 C.ar    1  UNL1        0.0195
     14 C         141.7529  139.4475  166.6326 C.ar    1  UNL1        0.0022
     15 C         141.7714  140.0273  168.0159 C.ar    1  UNL1        0.0103
     16 N         140.5218  141.4050  171.5216 N.1     1  UNL1       -0.1908
     17 C         140.5031  140.8251  170.1384 C.1     1  UNL1        0.1004
     18 O         137.6470  139.8589  159.4930 O.2     1  UNL1       -0.4085
     19 C         138.3960  140.5860  158.4158 C.3     1  UNL1        0.5750
     20 F         139.1449  141.3131  157.3386 F       1  UNL1       -0.1328
     21 F         138.8132  139.2740  157.8204 F       1  UNL1       -0.1328
     22 F         137.9787  141.8980  159.0112 F       1  UNL1       -0.1328
@<TRIPOS>BOND
     1    16    17    3
     2    17    10    1
     3    10    11   ar
     4    11    12   ar
     5    12    13   ar
     6    13     1    1
     7     1     2    2
     8     2     3    1
     9     3     4    2
    10     4     5    1
    11     5     6    1
    12     6    18    1
    13    18    19    1
    14    19    20    1
    15    19    21    1
    16    19    22    1
    17     6     7    2
    18     7     8    1
    19     8     9    2
    20    13    14   ar
    21    14    15   ar
    22    15    10   ar
    23     9     1    1
    24     9     4    1
@<TRIPOS>MOLECULE
*****
 22 24 0 0 0
SMALL
GASTEIGER

@<TRIPOS>ATOM
      1 C         138.9602  142.3981  163.5632 C.2     1  UNL1        0.1040
      2 N         137.6443  142.3087  162.8489 N.2     1  UNL1       -0.1483
      3 N         137.7874  143.0000  161.5255 N.2     1  UNL1       -0.1519
      4 C         139.1918  143.5167  161.4218 C.2     1  UNL1        0.0896
      5 C         139.9042  144.2778  160.3433 C.3     1  UNL1        0.1117
      6 C         141.3415  144.6669  160.5243 C.2     1  UNL1        0.1303
      7 C         142.0663  144.2949  161.7837 C.2     1  UNL1        0.0331
      8 C         141.3539  143.5337  162.8622 C.2     1  UNL1        0.0056
      9 C         139.9167  143.1446  162.6812 C.2     1  UNL1        0.0352
     10 C         139.8779  140.7209  167.6370 C.ar    1  UNL1        0.0684
     11 C         140.2879  142.1222  167.2930 C.ar    1  UNL1        0.0103
     12 C         139.9820  142.6812  165.9351 C.ar    1  UNL1        0.0022
     13 C         139.2661  141.8390  164.9211 C.ar    1  UNL1        0.0195
     14 C         138.8561  140.4377  165.2651 C.ar    1  UNL1        0.0022
     15 C         139.1620  139.8787  166.6230 C.ar    1  UNL1        0.0103
     16 N         140.4895  139.6029  170.3528 N.1     1  UNL1       -0.1908
     17 C         140.1838  140.1619  168.9949 C.1     1  UNL1        0.1004
     18 O         142.0540  145.4280  159.4458 O.2     1  UNL1       -0.4085
     19 C         142.1725  144.8444  158.0691 C.3     1  UNL1        0.5750
     20 F         142.2910  144.2608  156.6924 F       1  UNL1       -0.1328
     21 F         142.6842  143.5626  158.6565 F       1  UNL1       -0.1328
     22 F         141.6608  146.1263  157.4816 F       1  UNL1       -0.1328
@<TRIPOS>BOND
     1    16    17    3
     2    17    10    1
     3    10    11   ar
     4    11    12   ar
     5    12    13   ar
     6    13     1    1
     7     1     2    2
     8     2     3    1
     9     3     4    2
    10     4     5    1
    11     5     6    1
    12     6    18    1
    13    18    19    1
    14    19    20    1
    15    19    21    1
    16    19    22    1
    17     6     7    2
    18     7     8    1
    19     8     9    2
    20    13    14   ar
    21    14    15   ar
    22    15    10   ar
    23     9     1    1
    24     9     4    1
@<TRIPOS>MOLECULE
*****
 22 24 0 0 0
SMALL
GASTEIGER

@<TRIPOS>ATOM
      1 C         142.6265  143.4278  164.2710 C.2     1  UNL1        0.1040
      2 N         143.9849  143.7053  164.8436 N.2     1  UNL1       -0.1483
      3 N         144.0897  142.9878  166.1567 N.2     1  UNL1       -0.1519
      4 C         142.7961  142.2669  166.3956 C.2     1  UNL1        0.0896
      5 C         142.3249  141.3980  167.5237 C.3     1  UNL1        0.1117
      6 C         140.9493  140.8010  167.4865 C.2     1  UNL1        0.1303
      7 C         140.0450  141.0729  166.3210 C.2     1  UNL1        0.0331
      8 C         140.5163  141.9419  165.1928 C.2     1  UNL1        0.0056
      9 C         141.8919  142.5389  165.2301 C.2     1  UNL1        0.0352
     10 C         141.0349  144.9883  160.3617 C.ar    1  UNL1        0.0684
     11 C         140.5151  145.5389  161.6566 C.ar    1  UNL1        0.0103
     12 C         141.0456  145.0188  162.9596 C.ar    1  UNL1        0.0022
     13 C         142.0960  143.9480  162.9679 C.ar    1  UNL1        0.0195
     14 C         142.6158  143.3974  161.6730 C.ar    1  UNL1        0.0022
     15 C         142.0853  143.9175  160.3700 C.ar    1  UNL1        0.0103
     16 N         139.9739  146.0287  157.7557 N.1     1  UNL1       -0.1908
     17 C         140.5043  145.5085  159.0587 C.1     1  UNL1        0.1004
     18 O         140.4780  139.9320  168.6147 O.2     1  UNL1       -0.4085
     19 C         139.3348  140.3777  169.4775 C.3     1  UNL1        0.5750
     20 F         138.1916  140.8233  170.3404 F       1  UNL1       -0.1328
     21 F         138.4011  139.5067  168.6903 F       1  UNL1       -0.1328
     22 F         140.2685  141.2486  170.2647 F       1  UNL1       -0.1328
@<TRIPOS>BOND
     1    16    17    3
     2    17    10    1
     3    10    11   ar
     4    11    12   ar
     5    12    13   ar
     6    13     1    1
     7     1     2    2
     8     2     3    1
     9     3     4    2
    10     4     5    1
    11     5     6    1
    12     6    18    1
    13    18    19    1
    14    19    20    1
    15    19    21    1
    16    19    22    1
    17     6     7    2
    18     7     8    1
    19     8     9    2
    20    13    14   ar
    21    14    15   ar
    22    15    10   ar
    23     9     1    1
    24     9     4    1
