@<TRIPOS>MOLECULE
*****
 33 36 0 0 0
SMALL
GASTEIGER

@<TRIPOS>ATOM
      1 N         143.4037  138.4482  165.5117 N.pl3   1  UNL1       -0.3059
      2 H         144.2502  137.9472  165.4702 H       1  UNL1        0.1495
      3 N         142.8650  140.7895  166.6835 N.ar    1  UNL1       -0.2998
      4 C         143.0986  139.3079  166.7024 C.ar    1  UNL1        0.1978
      5 N         142.9736  138.8371  168.1211 N.ar    1  UNL1       -0.2138
      6 C         142.6628  140.0277  168.9790 C.ar    1  UNL1        0.0999
      7 C         142.4322  140.1689  170.4544 C.ar    1  UNL1        0.0207
      8 C         142.1344  141.5168  171.0413 C.ar    1  UNL1        0.0016
      9 C         142.0672  142.7234  170.1528 C.ar    1  UNL1        0.0016
     10 C         142.2978  142.5822  168.6774 C.ar    1  UNL1        0.0188
     11 C         142.5956  141.2343  168.0905 C.ar    1  UNL1        0.0798
     12 C         142.8953  141.6714  165.4706 C.3     1  UNL1        0.1087
     13 C         141.6119  142.1327  164.8463 C.3     1  UNL1        0.0246
     14 C         140.4011  141.2479  164.8796 C.3     1  UNL1        0.0020
     15 C         139.5115  141.2392  166.0872 C.3     1  UNL1        0.0001
     16 C         138.1015  139.0673  166.2997 C.3     1  UNL1        0.0000
     17 C         139.2128  139.9478  166.7895 C.3     1  UNL1        0.0000
     18 C         142.4190  138.3516  164.3844 C.3     1  UNL1        0.0745
     19 C         141.1058  137.6572  164.5929 C.3     1  UNL1        0.0369
     20 C         140.1212  137.5606  163.4655 C.3     1  UNL1        0.0738
     21 N         140.4496  138.1585  162.1295 N.3     1  UNL1       -0.2723
     22 C         141.7627  138.8529  161.9210 C.3     1  UNL1        0.0738
     23 C         142.7474  138.9495  163.0484 C.3     1  UNL1        0.0369
     24 C         139.4648  138.0619  161.0021 C.3     1  UNL1        0.0768
     25 C         138.9737  139.3078  160.3265 C.3     1  UNL1        0.0437
     26 C         138.6284  140.5175  161.1433 C.ar    1  UNL1       -0.0206
     27 C         137.6443  140.4059  162.2699 C.ar    1  UNL1       -0.0011
     28 C         137.2990  141.6157  163.0867 C.ar    1  UNL1        0.0366
     29 C         137.9379  142.9370  162.7771 C.ar    1  UNL1        0.1387
     30 C         138.9220  143.0487  161.6506 C.ar    1  UNL1        0.0366
     31 C         139.2673  141.8389  160.8337 C.ar    1  UNL1       -0.0011
     32 O         137.5926  144.1468  163.5939 O.3     1  UNL1       -0.4714
     33 C         138.5034  144.5895  164.7005 C.3     1  UNL1        0.2525
@<TRIPOS>BOND
     1    16    17    1
     2    17    15    1
     3    15    14    1
     4    14    13    1
     5    13    12    1
     6    12     3    1
     7     3     4   ar
     8     4     1    1
     9     1    18    1
    10    18    19    1
    11    19    20    1
    12    20    21    1
    13    21    24    1
    14    24    25    1
    15    25    26    1
    16    26    27   ar
    17    27    28   ar
    18    28    29   ar
    19    29    32    1
    20    32    33    1
    21    29    30   ar
    22    30    31   ar
    23    21    22    1
    24    22    23    1
    25     4     5   ar
    26     5     6   ar
    27     6     7   ar
    28     7     8   ar
    29     8     9   ar
    30     9    10   ar
    31    10    11   ar
    32    11     3   ar
    33    23    18    1
    34    11     6   ar
    35    31    26   ar
    36     1     2    1
@<TRIPOS>MOLECULE
*****
 33 36 0 0 0
SMALL
GASTEIGER

@<TRIPOS>ATOM
      1 N         138.6875  139.0936  167.3556 N.pl3   1  UNL1       -0.3059
      2 H         138.0687  138.5700  167.9143 H       1  UNL1        0.1495
      3 N         141.1839  139.9927  167.6797 N.ar    1  UNL1       -0.2998
      4 C         139.7185  139.9725  167.9994 C.ar    1  UNL1        0.1978
      5 N         139.4651  140.9857  169.0762 N.ar    1  UNL1       -0.2138
      6 C         140.7739  141.6320  169.4218 C.ar    1  UNL1        0.0999
      7 C         141.1355  142.7000  170.4110 C.ar    1  UNL1        0.0207
      8 C         142.5595  143.1543  170.5370 C.ar    1  UNL1        0.0016
      9 C         143.6217  142.5406  169.6739 C.ar    1  UNL1        0.0016
     10 C         143.2601  141.4726  168.6848 C.ar    1  UNL1        0.0188
     11 C         141.8361  141.0183  168.5587 C.ar    1  UNL1        0.0798
     12 C         141.8756  139.1374  166.6598 C.3     1  UNL1        0.1087
     13 C         142.5042  139.7690  165.4533 C.3     1  UNL1        0.0246
     14 C         141.7053  140.7036  164.5939 C.3     1  UNL1        0.0020
     15 C         141.8467  142.1869  164.7664 C.3     1  UNL1        0.0001
     16 C         140.0034  143.3249  166.2008 C.3     1  UNL1        0.0000
     17 C         140.6241  143.0505  164.8631 C.3     1  UNL1        0.0000
     18 C         138.5994  139.0123  165.8604 C.3     1  UNL1        0.0745
     19 C         138.1867  140.2165  165.0668 C.3     1  UNL1        0.0369
     20 C         138.0985  140.1352  163.5717 C.3     1  UNL1        0.0738
     21 N         138.4231  138.8498  162.8700 N.3     1  UNL1       -0.2723
     22 C         138.8358  137.6457  163.6635 C.3     1  UNL1        0.0738
     23 C         138.9240  137.7269  165.1587 C.3     1  UNL1        0.0369
     24 C         138.3350  138.7686  161.3747 C.3     1  UNL1        0.0768
     25 C         139.5338  138.3540  160.5742 C.3     1  UNL1        0.0437
     26 C         140.8875  138.9052  160.9108 C.ar    1  UNL1       -0.0206
     27 C         141.1742  140.3641  160.7113 C.ar    1  UNL1       -0.0011
     28 C         142.5280  140.9153  161.0479 C.ar    1  UNL1        0.0366
     29 C         143.5952  140.0078  161.5841 C.ar    1  UNL1        0.1387
     30 C         143.3086  138.5490  161.7837 C.ar    1  UNL1        0.0366
     31 C         141.9547  137.9977  161.4470 C.ar    1  UNL1       -0.0011
     32 O         144.9489  140.5590  161.9208 O.3     1  UNL1       -0.4714
     33 C         145.1160  141.4681  163.1022 C.3     1  UNL1        0.2525
@<TRIPOS>BOND
     1    16    17    1
     2    17    15    1
     3    15    14    1
     4    14    13    1
     5    13    12    1
     6    12     3    1
     7     3     4   ar
     8     4     1    1
     9     1    18    1
    10    18    19    1
    11    19    20    1
    12    20    21    1
    13    21    24    1
    14    24    25    1
    15    25    26    1
    16    26    27   ar
    17    27    28   ar
    18    28    29   ar
    19    29    32    1
    20    32    33    1
    21    29    30   ar
    22    30    31   ar
    23    21    22    1
    24    22    23    1
    25     4     5   ar
    26     5     6   ar
    27     6     7   ar
    28     7     8   ar
    29     8     9   ar
    30     9    10   ar
    31    10    11   ar
    32    11     3   ar
    33    23    18    1
    34    11     6   ar
    35    31    26   ar
    36     1     2    1
@<TRIPOS>MOLECULE
*****
 33 36 0 0 0
SMALL
GASTEIGER

@<TRIPOS>ATOM
      1 N         142.9110  138.3642  165.6674 N.pl3   1  UNL1       -0.3059
      2 H         143.7222  137.8078  165.6272 H       1  UNL1        0.1495
      3 N         142.1696  140.6891  166.7583 N.ar    1  UNL1       -0.2998
      4 C         142.6892  139.2839  166.8314 C.ar    1  UNL1        0.1978
      5 N         142.9479  138.9598  168.2729 N.ar    1  UNL1       -0.2138
      6 C         142.5883  140.1648  169.0907 C.ar    1  UNL1        0.0999
      7 C         142.6367  140.4268  170.5669 C.ar    1  UNL1        0.0207
      8 C         142.2041  141.7577  171.1069 C.ar    1  UNL1        0.0016
      9 C         141.7231  142.8264  170.1708 C.ar    1  UNL1        0.0016
     10 C         141.6747  142.5644  168.6947 C.ar    1  UNL1        0.0188
     11 C         142.1073  141.2336  168.1546 C.ar    1  UNL1        0.0798
     12 C         141.7807  141.4215  165.5083 C.3     1  UNL1        0.1087
     13 C         142.4869  142.6900  165.1317 C.3     1  UNL1        0.0246
     14 C         143.9677  142.8134  165.3368 C.3     1  UNL1        0.0020
     15 C         144.8759  142.9926  164.1566 C.3     1  UNL1        0.0001
     16 C         145.3533  140.4389  164.1359 C.3     1  UNL1        0.0000
     17 C         145.5732  141.8062  163.5597 C.3     1  UNL1        0.0000
     18 C         141.8968  138.2922  164.5645 C.3     1  UNL1        0.0745
     19 C         142.2636  138.7328  163.1783 C.3     1  UNL1        0.0369
     20 C         141.2495  138.6608  162.0755 C.3     1  UNL1        0.0738
     21 N         139.8685  138.1482  162.3588 N.3     1  UNL1       -0.2723
     22 C         139.5017  137.7077  163.7449 C.3     1  UNL1        0.0738
     23 C         140.5159  137.7796  164.8478 C.3     1  UNL1        0.0369
     24 C         138.8544  138.0762  161.2558 C.3     1  UNL1        0.0768
     25 C         137.6824  139.0124  161.2523 C.3     1  UNL1        0.0437
     26 C         137.8360  140.4082  161.7796 C.ar    1  UNL1       -0.0206
     27 C         137.5190  140.7069  163.2150 C.ar    1  UNL1       -0.0011
     28 C         137.6725  142.1027  163.7423 C.ar    1  UNL1        0.0366
     29 C         138.1432  143.1999  162.8342 C.ar    1  UNL1        0.1387
     30 C         138.4602  142.9013  161.3988 C.ar    1  UNL1        0.0366
     31 C         138.3067  141.5055  160.8715 C.ar    1  UNL1       -0.0011
     32 O         138.2968  144.5958  163.3615 O.3     1  UNL1       -0.4714
     33 C         138.8155  144.8198  164.7510 C.3     1  UNL1        0.2525
@<TRIPOS>BOND
     1    16    17    1
     2    17    15    1
     3    15    14    1
     4    14    13    1
     5    13    12    1
     6    12     3    1
     7     3     4   ar
     8     4     1    1
     9     1    18    1
    10    18    19    1
    11    19    20    1
    12    20    21    1
    13    21    24    1
    14    24    25    1
    15    25    26    1
    16    26    27   ar
    17    27    28   ar
    18    28    29   ar
    19    29    32    1
    20    32    33    1
    21    29    30   ar
    22    30    31   ar
    23    21    22    1
    24    22    23    1
    25     4     5   ar
    26     5     6   ar
    27     6     7   ar
    28     7     8   ar
    29     8     9   ar
    30     9    10   ar
    31    10    11   ar
    32    11     3   ar
    33    23    18    1
    34    11     6   ar
    35    31    26   ar
    36     1     2    1
@<TRIPOS>MOLECULE
*****
 33 36 0 0 0
SMALL
GASTEIGER

@<TRIPOS>ATOM
      1 N         143.5742  138.6547  165.4593 N.pl3   1  UNL1       -0.3059
      2 H         143.9542  137.7467  165.4387 H       1  UNL1        0.1495
      3 N         141.2529  139.4840  166.4931 N.ar    1  UNL1       -0.2998
      4 C         142.6916  139.0727  166.5978 C.ar    1  UNL1        0.1978
      5 N         143.0927  139.1529  168.0409 N.ar    1  UNL1       -0.2138
      6 C         141.9020  139.6137  168.8282 C.ar    1  UNL1        0.0999
      7 C         141.7062  139.8735  170.2924 C.ar    1  UNL1        0.0207
      8 C         140.3733  140.3378  170.8001 C.ar    1  UNL1        0.0016
      9 C         139.2362  140.5424  169.8435 C.ar    1  UNL1        0.0016
     10 C         139.4320  140.2827  168.3792 C.ar    1  UNL1        0.0188
     11 C         140.7649  139.8184  167.8715 C.ar    1  UNL1        0.0798
     12 C         140.4442  139.5494  165.2315 C.3     1  UNL1        0.1087
     13 C         140.3159  140.8465  164.4892 C.3     1  UNL1        0.0246
     14 C         140.1894  142.1349  165.2468 C.3     1  UNL1        0.0020
     15 C         140.8008  143.3903  164.6988 C.3     1  UNL1        0.0001
     16 C         138.7334  144.7963  165.4054 C.3     1  UNL1        0.0000
     17 C         139.9743  144.6362  164.5779 C.3     1  UNL1        0.0000
     18 C         143.8779  139.6200  164.3521 C.3     1  UNL1        0.0745
     19 C         144.0045  141.0851  164.6482 C.3     1  UNL1        0.0369
     20 C         144.3082  142.0505  163.5410 C.3     1  UNL1        0.0738
     21 N         144.4854  141.5509  162.1378 N.3     1  UNL1       -0.2723
     22 C         144.3588  140.0859  161.8418 C.3     1  UNL1        0.0738
     23 C         144.0551  139.1204  162.9489 C.3     1  UNL1        0.0369
     24 C         144.7891  142.5163  161.0307 C.3     1  UNL1        0.0768
     25 C         143.7469  142.8235  159.9965 C.3     1  UNL1        0.0437
     26 C         142.3078  142.9557  160.3983 C.ar    1  UNL1       -0.0206
     27 C         141.6975  144.3158  160.5649 C.ar    1  UNL1       -0.0011
     28 C         140.2584  144.4479  160.9666 C.ar    1  UNL1        0.0366
     29 C         139.4296  143.2200  161.2018 C.ar    1  UNL1        0.1387
     30 C         140.0398  141.8600  161.0353 C.ar    1  UNL1        0.0366
     31 C         141.4790  141.7278  160.6335 C.ar    1  UNL1       -0.0011
     32 O         137.9904  143.3522  161.6036 O.3     1  UNL1       -0.4714
     33 C         137.4548  142.5467  162.7500 C.3     1  UNL1        0.2525
@<TRIPOS>BOND
     1    16    17    1
     2    17    15    1
     3    15    14    1
     4    14    13    1
     5    13    12    1
     6    12     3    1
     7     3     4   ar
     8     4     1    1
     9     1    18    1
    10    18    19    1
    11    19    20    1
    12    20    21    1
    13    21    24    1
    14    24    25    1
    15    25    26    1
    16    26    27   ar
    17    27    28   ar
    18    28    29   ar
    19    29    32    1
    20    32    33    1
    21    29    30   ar
    22    30    31   ar
    23    21    22    1
    24    22    23    1
    25     4     5   ar
    26     5     6   ar
    27     6     7   ar
    28     7     8   ar
    29     8     9   ar
    30     9    10   ar
    31    10    11   ar
    32    11     3   ar
    33    23    18    1
    34    11     6   ar
    35    31    26   ar
    36     1     2    1
@<TRIPOS>MOLECULE
*****
 33 36 0 0 0
SMALL
GASTEIGER

@<TRIPOS>ATOM
      1 N         138.1410  140.0453  165.8592 N.pl3   1  UNL1       -0.3059
      2 H         137.2013  140.1147  166.1446 H       1  UNL1        0.1495
      3 N         140.2751  141.3598  166.7880 N.ar    1  UNL1       -0.2998
      4 C         139.2444  140.2718  166.8498 C.ar    1  UNL1        0.1978
      5 N         139.5107  139.4502  168.0762 N.ar    1  UNL1       -0.2138
      6 C         140.7060  140.0304  168.7723 C.ar    1  UNL1        0.0999
      7 C         141.4253  139.6365  170.0283 C.ar    1  UNL1        0.0207
      8 C         142.6170  140.4228  170.4880 C.ar    1  UNL1        0.0016
      9 C         143.0895  141.6030  169.6919 C.ar    1  UNL1        0.0016
     10 C         142.3702  141.9969  168.4359 C.ar    1  UNL1        0.0188
     11 C         141.1785  141.2106  167.9761 C.ar    1  UNL1        0.0798
     12 C         140.3836  142.4122  165.7247 C.3     1  UNL1        0.1087
     13 C         141.4140  142.2818  164.6426 C.3     1  UNL1        0.0246
     14 C         141.8337  140.9227  164.1664 C.3     1  UNL1        0.0020
     15 C         142.9185  140.1777  164.8862 C.3     1  UNL1        0.0001
     16 C         143.4232  138.3966  166.7091 C.3     1  UNL1        0.0000
     17 C         142.6217  138.8542  165.5266 C.3     1  UNL1        0.0000
     18 C         138.4693  139.7129  164.4339 C.3     1  UNL1        0.0745
     19 C         139.0967  138.3926  164.0970 C.3     1  UNL1        0.0369
     20 C         139.4250  138.0603  162.6716 C.3     1  UNL1        0.0738
     21 N         139.1260  139.0481  161.5831 N.3     1  UNL1       -0.2723
     22 C         138.4987  140.3683  161.9200 C.3     1  UNL1        0.0738
     23 C         138.1704  140.7007  163.3454 C.3     1  UNL1        0.0369
     24 C         139.4544  138.7156  160.1577 C.3     1  UNL1        0.0768
     25 C         140.8758  138.4527  159.7572 C.3     1  UNL1        0.0437
     26 C         141.9793  139.3101  160.3021 C.ar    1  UNL1       -0.0206
     27 C         143.1143  138.6824  161.0558 C.ar    1  UNL1       -0.0011
     28 C         144.2179  139.5399  161.6007 C.ar    1  UNL1        0.0366
     29 C         144.1865  141.0249  161.3920 C.ar    1  UNL1        0.1387
     30 C         143.0517  141.6526  160.6383 C.ar    1  UNL1        0.0366
     31 C         141.9480  140.7952  160.0933 C.ar    1  UNL1       -0.0011
     32 O         145.2901  141.8823  161.9369 O.3     1  UNL1       -0.4714
     33 C         145.7740  141.6786  163.3421 C.3     1  UNL1        0.2525
@<TRIPOS>BOND
     1    16    17    1
     2    17    15    1
     3    15    14    1
     4    14    13    1
     5    13    12    1
     6    12     3    1
     7     3     4   ar
     8     4     1    1
     9     1    18    1
    10    18    19    1
    11    19    20    1
    12    20    21    1
    13    21    24    1
    14    24    25    1
    15    25    26    1
    16    26    27   ar
    17    27    28   ar
    18    28    29   ar
    19    29    32    1
    20    32    33    1
    21    29    30   ar
    22    30    31   ar
    23    21    22    1
    24    22    23    1
    25     4     5   ar
    26     5     6   ar
    27     6     7   ar
    28     7     8   ar
    29     8     9   ar
    30     9    10   ar
    31    10    11   ar
    32    11     3   ar
    33    23    18    1
    34    11     6   ar
    35    31    26   ar
    36     1     2    1
@<TRIPOS>MOLECULE
*****
 33 36 0 0 0
SMALL
GASTEIGER

@<TRIPOS>ATOM
      1 N         138.8195  138.4103  165.0462 N.pl3   1  UNL1       -0.3059
      2 H         138.6375  137.4485  165.1507 H       1  UNL1        0.1495
      3 N         140.4068  140.1847  166.2616 N.ar    1  UNL1       -0.2998
      4 C         139.2554  139.2239  166.2286 C.ar    1  UNL1        0.1978
      5 N         138.6165  139.2196  167.5857 N.ar    1  UNL1       -0.2138
      6 C         139.3729  140.1776  168.4574 C.ar    1  UNL1        0.0999
      7 C         139.1972  140.5839  169.8905 C.ar    1  UNL1        0.0207
      8 C         140.1279  141.5868  170.5053 C.ar    1  UNL1        0.0016
      9 C         141.2345  142.1833  169.6869 C.ar    1  UNL1        0.0016
     10 C         141.4103  141.7770  168.2538 C.ar    1  UNL1        0.0188
     11 C         140.4795  140.7741  167.6390 C.ar    1  UNL1        0.0798
     12 C         141.3245  140.5006  165.1179 C.3     1  UNL1        0.1087
     13 C         141.0547  141.6914  164.2466 C.3     1  UNL1        0.0246
     14 C         141.1155  143.0737  164.8257 C.3     1  UNL1        0.0020
     15 C         139.8973  143.6744  165.4623 C.3     1  UNL1        0.0001
     16 C         137.8182  144.1628  163.9828 C.3     1  UNL1        0.0000
     17 C         139.0493  144.6431  164.6925 C.3     1  UNL1        0.0000
     18 C         138.6609  139.0623  163.7047 C.3     1  UNL1        0.0745
     19 C         137.8117  140.2907  163.5635 C.3     1  UNL1        0.0369
     20 C         137.6531  140.9426  162.2219 C.3     1  UNL1        0.0738
     21 N         138.3436  140.3662  161.0215 N.3     1  UNL1       -0.2723
     22 C         139.1927  139.1378  161.1627 C.3     1  UNL1        0.0738
     23 C         139.3514  138.4858  162.5043 C.3     1  UNL1        0.0369
     24 C         138.1849  141.0182  159.6799 C.3     1  UNL1        0.0768
     25 C         138.5873  142.4506  159.4899 C.3     1  UNL1        0.0437
     26 C         139.8416  142.9684  160.1291 C.ar    1  UNL1       -0.0206
     27 C         139.8170  144.2606  160.8906 C.ar    1  UNL1       -0.0011
     28 C         141.0713  144.7784  161.5297 C.ar    1  UNL1        0.0366
     29 C         142.3502  144.0041  161.4075 C.ar    1  UNL1        0.1387
     30 C         142.3748  142.7120  160.6461 C.ar    1  UNL1        0.0366
     31 C         141.1204  142.1941  160.0068 C.ar    1  UNL1       -0.0011
     32 O         143.6045  144.5219  162.0466 O.3     1  UNL1       -0.4714
     33 C         144.4950  143.5901  162.8142 C.3     1  UNL1        0.2525
@<TRIPOS>BOND
     1    16    17    1
     2    17    15    1
     3    15    14    1
     4    14    13    1
     5    13    12    1
     6    12     3    1
     7     3     4   ar
     8     4     1    1
     9     1    18    1
    10    18    19    1
    11    19    20    1
    12    20    21    1
    13    21    24    1
    14    24    25    1
    15    25    26    1
    16    26    27   ar
    17    27    28   ar
    18    28    29   ar
    19    29    32    1
    20    32    33    1
    21    29    30   ar
    22    30    31   ar
    23    21    22    1
    24    22    23    1
    25     4     5   ar
    26     5     6   ar
    27     6     7   ar
    28     7     8   ar
    29     8     9   ar
    30     9    10   ar
    31    10    11   ar
    32    11     3   ar
    33    23    18    1
    34    11     6   ar
    35    31    26   ar
    36     1     2    1
@<TRIPOS>MOLECULE
*****
 33 36 0 0 0
SMALL
GASTEIGER

@<TRIPOS>ATOM
      1 N         140.1867  145.0403  163.4774 N.pl3   1  UNL1       -0.3059
      2 H         140.2289  145.8876  163.9770 H       1  UNL1        0.1495
      3 N         141.6933  144.3413  161.3830 N.ar    1  UNL1       -0.2998
      4 C         140.5112  145.0161  162.0131 C.ar    1  UNL1        0.1978
      5 N         139.7104  145.6625  160.9218 N.ar    1  UNL1       -0.2138
      6 C         140.3977  145.3871  159.6173 C.ar    1  UNL1        0.0999
      7 C         140.0659  145.7745  158.2067 C.ar    1  UNL1        0.0207
      8 C         140.9597  145.3452  157.0811 C.ar    1  UNL1        0.0016
      9 C         142.1852  144.5286  157.3662 C.ar    1  UNL1        0.0016
     10 C         142.5170  144.1413  158.7768 C.ar    1  UNL1        0.0188
     11 C         141.6232  144.5706  159.9023 C.ar    1  UNL1        0.0798
     12 C         142.7587  143.5721  162.1066 C.3     1  UNL1        0.1087
     13 C         143.8642  144.3022  162.8098 C.3     1  UNL1        0.0246
     14 C         144.0851  144.0938  164.2788 C.3     1  UNL1        0.0020
     15 C         144.4173  142.7275  164.8009 C.3     1  UNL1        0.0001
     16 C         145.2385  140.3836  164.0378 C.3     1  UNL1        0.0000
     17 C         145.4176  141.8723  164.0811 C.3     1  UNL1        0.0000
     18 C         139.7981  143.7737  164.1806 C.3     1  UNL1        0.0745
     19 C         140.6752  143.2170  165.2627 C.3     1  UNL1        0.0369
     20 C         140.2866  141.9504  165.9658 C.3     1  UNL1        0.0738
     21 N         139.0208  141.2402  165.5869 N.3     1  UNL1       -0.2723
     22 C         138.1437  141.7968  164.5049 C.3     1  UNL1        0.0738
     23 C         138.5323  143.0636  163.8017 C.3     1  UNL1        0.0369
     24 C         138.6322  139.9735  166.2901 C.3     1  UNL1        0.0768
     25 C         138.5369  138.6884  165.5224 C.3     1  UNL1        0.0437
     26 C         139.5135  138.3984  164.4214 C.ar    1  UNL1       -0.0206
     27 C         140.9728  138.2471  164.7338 C.ar    1  UNL1       -0.0011
     28 C         141.9493  137.9571  163.6328 C.ar    1  UNL1        0.0366
     29 C         141.4666  137.8183  162.2194 C.ar    1  UNL1        0.1387
     30 C         140.0074  137.9696  161.9070 C.ar    1  UNL1        0.0366
     31 C         139.0308  138.2597  163.0080 C.ar    1  UNL1       -0.0011
     32 O         142.4432  137.5283  161.1184 O.3     1  UNL1       -0.4714
     33 C         143.8866  137.9042  161.2778 C.3     1  UNL1        0.2525
@<TRIPOS>BOND
     1    16    17    1
     2    17    15    1
     3    15    14    1
     4    14    13    1
     5    13    12    1
     6    12     3    1
     7     3     4   ar
     8     4     1    1
     9     1    18    1
    10    18    19    1
    11    19    20    1
    12    20    21    1
    13    21    24    1
    14    24    25    1
    15    25    26    1
    16    26    27   ar
    17    27    28   ar
    18    28    29   ar
    19    29    32    1
    20    32    33    1
    21    29    30   ar
    22    30    31   ar
    23    21    22    1
    24    22    23    1
    25     4     5   ar
    26     5     6   ar
    27     6     7   ar
    28     7     8   ar
    29     8     9   ar
    30     9    10   ar
    31    10    11   ar
    32    11     3   ar
    33    23    18    1
    34    11     6   ar
    35    31    26   ar
    36     1     2    1
@<TRIPOS>MOLECULE
*****
 33 36 0 0 0
SMALL
GASTEIGER

@<TRIPOS>ATOM
      1 N         137.6989  143.2132  162.0933 N.pl3   1  UNL1       -0.3059
      2 H         136.9321  143.7930  162.3059 H       1  UNL1        0.1495
      3 N         139.7455  144.5694  161.0363 N.ar    1  UNL1       -0.2998
      4 C         138.6241  143.5753  160.9696 C.ar    1  UNL1        0.1978
      5 N         138.5905  143.0070  159.5818 N.ar    1  UNL1       -0.2138
      6 C         139.6910  143.6498  158.7908 C.ar    1  UNL1        0.0999
      7 C         140.1354  143.4806  157.3682 C.ar    1  UNL1        0.0207
      8 C         141.2936  144.2770  156.8445 C.ar    1  UNL1        0.0016
      9 C         142.0074  145.2426  157.7435 C.ar    1  UNL1        0.0016
     10 C         141.5630  145.4118  159.1661 C.ar    1  UNL1        0.0188
     11 C         140.4049  144.6154  159.6898 C.ar    1  UNL1        0.0798
     12 C         140.1384  145.3759  162.2384 C.3     1  UNL1        0.1087
     13 C         140.9137  144.7348  163.3509 C.3     1  UNL1        0.0246
     14 C         141.9603  143.7062  163.0401 C.3     1  UNL1        0.0020
     15 C         141.5931  142.2525  162.9945 C.3     1  UNL1        0.0001
     16 C         142.6381  141.8709  160.6466 C.3     1  UNL1        0.0000
     17 C         141.6221  141.5122  161.6902 C.3     1  UNL1        0.0000
     18 C         137.9418  141.9678  162.8931 C.3     1  UNL1        0.0745
     19 C         138.2024  142.0621  164.3674 C.3     1  UNL1        0.0369
     20 C         138.4454  140.8166  165.1672 C.3     1  UNL1        0.0738
     21 N         138.4278  139.4769  164.4929 N.3     1  UNL1       -0.2723
     22 C         138.1673  139.3825  163.0188 C.3     1  UNL1        0.0738
     23 C         137.9243  140.6280  162.2188 C.3     1  UNL1        0.0369
     24 C         138.6708  138.2314  165.2929 C.3     1  UNL1        0.0768
     25 C         139.8658  137.3733  165.0002 C.3     1  UNL1        0.0437
     26 C         141.1627  138.0073  164.5928 C.ar    1  UNL1       -0.0206
     27 C         141.7333  137.7398  163.2315 C.ar    1  UNL1       -0.0011
     28 C         143.0302  138.3738  162.8241 C.ar    1  UNL1        0.0366
     29 C         143.7565  139.2753  163.7778 C.ar    1  UNL1        0.1387
     30 C         143.1860  139.5428  165.1390 C.ar    1  UNL1        0.0366
     31 C         141.8890  138.9088  165.5465 C.ar    1  UNL1       -0.0011
     32 O         145.0534  139.9093  163.3704 O.3     1  UNL1       -0.4714
     33 C         145.4238  141.2643  163.8967 C.3     1  UNL1        0.2525
@<TRIPOS>BOND
     1    16    17    1
     2    17    15    1
     3    15    14    1
     4    14    13    1
     5    13    12    1
     6    12     3    1
     7     3     4   ar
     8     4     1    1
     9     1    18    1
    10    18    19    1
    11    19    20    1
    12    20    21    1
    13    21    24    1
    14    24    25    1
    15    25    26    1
    16    26    27   ar
    17    27    28   ar
    18    28    29   ar
    19    29    32    1
    20    32    33    1
    21    29    30   ar
    22    30    31   ar
    23    21    22    1
    24    22    23    1
    25     4     5   ar
    26     5     6   ar
    27     6     7   ar
    28     7     8   ar
    29     8     9   ar
    30     9    10   ar
    31    10    11   ar
    32    11     3   ar
    33    23    18    1
    34    11     6   ar
    35    31    26   ar
    36     1     2    1
@<TRIPOS>MOLECULE
*****
 33 36 0 0 0
SMALL
GASTEIGER

@<TRIPOS>ATOM
      1 N         142.8625  138.5447  165.6394 N.pl3   1  UNL1       -0.3059
      2 H         142.9404  137.5634  165.6493 H       1  UNL1        0.1495
      3 N         141.2770  140.2612  166.9375 N.ar    1  UNL1       -0.2998
      4 C         142.4035  139.2732  166.8676 C.ar    1  UNL1        0.1978
      5 N         142.9904  139.1415  168.2418 N.ar    1  UNL1       -0.2138
      6 C         142.2266  140.0482  169.1608 C.ar    1  UNL1        0.0999
      7 C         142.3585  140.3330  170.6276 C.ar    1  UNL1        0.0207
      8 C         141.4315  141.3098  171.2882 C.ar    1  UNL1        0.0016
      9 C         140.3726  142.0018  170.4821 C.ar    1  UNL1        0.0016
     10 C         140.2407  141.7170  169.0153 C.ar    1  UNL1        0.0188
     11 C         141.1677  140.7401  168.3547 C.ar    1  UNL1        0.0798
     12 C         140.4117  140.6942  165.7912 C.3     1  UNL1        0.1087
     13 C         138.9447  140.3818  165.7991 C.3     1  UNL1        0.0246
     14 C         138.4442  139.1482  166.4904 C.3     1  UNL1        0.0020
     15 C         138.4347  137.8344  165.7666 C.3     1  UNL1        0.0001
     16 C         138.8690  137.7048  163.2084 C.3     1  UNL1        0.0000
     17 C         139.3716  137.6040  164.6181 C.3     1  UNL1        0.0000
     18 C         143.2029  139.3115  164.3959 C.3     1  UNL1        0.0745
     19 C         142.4013  139.1057  163.1448 C.3     1  UNL1        0.0369
     20 C         142.7417  139.8724  161.9014 C.3     1  UNL1        0.0738
     21 N         143.8837  140.8450  161.9089 N.3     1  UNL1       -0.2723
     22 C         144.6853  141.0507  163.1599 C.3     1  UNL1        0.0738
     23 C         144.3449  140.2840  164.4035 C.3     1  UNL1        0.0369
     24 C         144.2241  141.6117  160.6654 C.3     1  UNL1        0.0768
     25 C         143.8173  143.0497  160.5360 C.3     1  UNL1        0.0437
     26 C         142.6318  143.5651  161.2968 C.ar    1  UNL1       -0.0206
     27 C         142.8340  144.3512  162.5582 C.ar    1  UNL1       -0.0011
     28 C         141.6485  144.8666  163.3190 C.ar    1  UNL1        0.0366
     29 C         140.2606  144.5959  162.8184 C.ar    1  UNL1        0.1387
     30 C         140.0583  143.8098  161.5570 C.ar    1  UNL1        0.0366
     31 C         141.2439  143.2944  160.7962 C.ar    1  UNL1       -0.0011
     32 O         139.0751  145.1113  163.5791 O.3     1  UNL1       -0.4714
     33 C         138.9320  144.8072  165.0411 C.3     1  UNL1        0.2525
@<TRIPOS>BOND
     1    16    17    1
     2    17    15    1
     3    15    14    1
     4    14    13    1
     5    13    12    1
     6    12     3    1
     7     3     4   ar
     8     4     1    1
     9     1    18    1
    10    18    19    1
    11    19    20    1
    12    20    21    1
    13    21    24    1
    14    24    25    1
    15    25    26    1
    16    26    27   ar
    17    27    28   ar
    18    28    29   ar
    19    29    32    1
    20    32    33    1
    21    29    30   ar
    22    30    31   ar
    23    21    22    1
    24    22    23    1
    25     4     5   ar
    26     5     6   ar
    27     6     7   ar
    28     7     8   ar
    29     8     9   ar
    30     9    10   ar
    31    10    11   ar
    32    11     3   ar
    33    23    18    1
    34    11     6   ar
    35    31    26   ar
    36     1     2    1
