@<TRIPOS>MOLECULE
*****
 30 33 0 0 0
SMALL
GASTEIGER

@<TRIPOS>ATOM
      1 C         140.3857  138.8867  163.4731 C.3     1  UNL1        0.0036
      2 C         139.7828  139.4338  164.7330 C.3     1  UNL1        0.0386
      3 C         139.3965  138.0148  164.4379 C.3     1  UNL1        0.0091
      4 C         138.4829  137.2767  165.3708 C.3     1  UNL1        0.0667
      5 C         137.9555  137.9577  166.5989 C.3     1  UNL1        0.2639
      6 F         137.2032  138.1716  167.8789 F       1  UNL1       -0.2043
      7 F         137.3079  136.6129  166.7483 F       1  UNL1       -0.2043
      8 C         138.3418  139.3767  166.8940 C.3     1  UNL1        0.0667
      9 C         139.2554  140.1148  165.9611 C.3     1  UNL1        0.0103
     10 C         139.8063  141.5096  165.9903 C.3     1  UNL1        0.0199
     11 C         140.6741  141.6908  164.7803 C.3     1  UNL1        0.0978
     12 C         140.6596  140.4078  164.0033 C.3     1  UNL1        0.1801
     13 N         141.4246  142.9362  164.4121 N.3     1  UNL1       -0.2697
     14 C         142.8801  143.0629  164.7519 C.3     1  UNL1        0.0722
     15 C         143.6306  144.3083  164.3837 C.3     1  UNL1        0.0187
     16 C         142.9257  145.4270  163.6755 C.3     1  UNL1        0.0183
     17 C         141.4703  145.3003  163.3356 C.3     1  UNL1        0.0670
     18 N         140.7653  146.4191  162.6274 N.3     1  UNL1       -0.3211
     19 C         140.7198  144.0549  163.7039 C.3     1  UNL1        0.0878
     20 H         139.7890  146.1648  162.4774 H       1  UNL1        0.1189
     21 H         141.2147  146.5885  161.7275 H       1  UNL1        0.1189
     22 O         141.3931  140.1450  162.7215 O.3     1  UNL1       -0.4778
     23 C         141.5762  141.2486  161.7223 C.ar    1  UNL1        0.1385
     24 C         142.9448  141.8042  161.4608 C.ar    1  UNL1        0.0376
     25 C         143.1278  142.9078  160.4616 C.ar    1  UNL1        0.0134
     26 C         141.9424  143.4559  159.7238 C.ar    1  UNL1        0.0686
     27 C         140.5738  142.9003  159.9852 C.ar    1  UNL1        0.0134
     28 C         140.3907  141.7967  160.9844 C.ar    1  UNL1        0.0376
     29 C         142.1255  144.5595  158.7245 C.1     1  UNL1        0.1004
     30 N         142.3086  145.6631  157.7252 N.1     1  UNL1       -0.1908
@<TRIPOS>BOND
     1     2     1    1
     2     2     3    1
     3     3     4    1
     4     4     5    1
     5     5     6    1
     6     5     7    1
     7     5     8    1
     8     9     8    1
     9     9    10    1
    10    10    11    1
    11    11    13    1
    12    13    14    1
    13    14    15    1
    14    15    16    1
    15    16    17    1
    16    17    18    1
    17    17    19    1
    18    11    12    1
    19    12    22    1
    20    22    23    1
    21    23    24   ar
    22    24    25   ar
    23    25    26   ar
    24    26    29    1
    25    29    30    3
    26    26    27   ar
    27    27    28   ar
    28     9     2    1
    29    19    13    1
    30    28    23   ar
    31    12     2    1
    32    18    20    1
    33    18    21    1
@<TRIPOS>MOLECULE
*****
 30 33 0 0 0
SMALL
GASTEIGER

@<TRIPOS>ATOM
      1 C         142.4818  141.9544  166.7200 C.3     1  UNL1        0.0036
      2 C         141.4948  141.2952  167.6373 C.3     1  UNL1        0.0386
      3 C         142.5298  142.1185  168.3450 C.3     1  UNL1        0.0091
      4 C         142.5107  142.2227  169.8412 C.3     1  UNL1        0.0667
      5 C         141.4567  141.5035  170.6297 C.3     1  UNL1        0.2639
      6 F         140.6669  141.0109  171.8059 F       1  UNL1       -0.2043
      7 F         142.2174  142.1558  171.7459 F       1  UNL1       -0.2043
      8 C         140.4217  140.6802  169.9220 C.3     1  UNL1        0.0667
      9 C         140.4408  140.5760  168.4258 C.3     1  UNL1        0.0103
     10 C         139.5572  139.8445  167.4593 C.3     1  UNL1        0.0199
     11 C         140.0652  140.1115  166.0734 C.3     1  UNL1        0.0978
     12 C         141.2627  141.0081  166.1834 C.3     1  UNL1        0.1801
     13 N         139.4786  139.5760  164.8009 N.3     1  UNL1       -0.2697
     14 C         139.8171  138.1876  164.3451 C.3     1  UNL1        0.0722
     15 C         139.2306  137.6521  163.0726 C.3     1  UNL1        0.0187
     16 C         138.3055  138.5049  162.2560 C.3     1  UNL1        0.0183
     17 C         137.9671  139.8933  162.7118 C.3     1  UNL1        0.0670
     18 N         137.0420  140.7462  161.8952 N.3     1  UNL1       -0.3211
     19 C         138.5536  140.4288  163.9843 C.3     1  UNL1        0.0878
     20 H         136.9241  141.6517  162.3498 H       1  UNL1        0.1189
     21 H         136.1356  140.2851  161.8157 H       1  UNL1        0.1189
     22 O         142.0839  141.5266  165.0403 O.3     1  UNL1       -0.4778
     23 C         142.2721  140.6881  163.8109 C.ar    1  UNL1        0.1385
     24 C         143.0676  139.4185  163.8835 C.ar    1  UNL1        0.0376
     25 C         143.2557  138.5800  162.6541 C.ar    1  UNL1        0.0134
     26 C         142.6484  139.0110  161.3521 C.ar    1  UNL1        0.0686
     27 C         141.8528  140.2806  161.2794 C.ar    1  UNL1        0.0134
     28 C         141.6647  141.1191  162.5088 C.ar    1  UNL1        0.0376
     29 C         142.8365  138.1725  160.1226 C.1     1  UNL1        0.1004
     30 N         143.0246  137.3340  158.8932 N.1     1  UNL1       -0.1908
@<TRIPOS>BOND
     1     2     1    1
     2     2     3    1
     3     3     4    1
     4     4     5    1
     5     5     6    1
     6     5     7    1
     7     5     8    1
     8     9     8    1
     9     9    10    1
    10    10    11    1
    11    11    13    1
    12    13    14    1
    13    14    15    1
    14    15    16    1
    15    16    17    1
    16    17    18    1
    17    17    19    1
    18    11    12    1
    19    12    22    1
    20    22    23    1
    21    23    24   ar
    22    24    25   ar
    23    25    26   ar
    24    26    29    1
    25    29    30    3
    26    26    27   ar
    27    27    28   ar
    28     9     2    1
    29    19    13    1
    30    28    23   ar
    31    12     2    1
    32    18    20    1
    33    18    21    1
@<TRIPOS>MOLECULE
*****
 30 33 0 0 0
SMALL
GASTEIGER

@<TRIPOS>ATOM
      1 C         142.4891  141.9974  166.8062 C.3     1  UNL1        0.0036
      2 C         141.5159  141.3125  167.7194 C.3     1  UNL1        0.0386
      3 C         142.5440  142.1393  168.4330 C.3     1  UNL1        0.0091
      4 C         142.5320  142.2223  169.9306 C.3     1  UNL1        0.0667
      5 C         141.4918  141.4784  170.7147 C.3     1  UNL1        0.2639
      6 F         140.7151  140.9590  171.8881 F       1  UNL1       -0.2043
      7 F         142.2501  142.1249  171.8358 F       1  UNL1       -0.2043
      8 C         140.4637  140.6515  170.0010 C.3     1  UNL1        0.0667
      9 C         140.4758  140.5686  168.5034 C.3     1  UNL1        0.0103
     10 C         139.5964  139.8391  167.5315 C.3     1  UNL1        0.0199
     11 C         140.0931  140.1322  166.1468 C.3     1  UNL1        0.0978
     12 C         141.2794  141.0428  166.2629 C.3     1  UNL1        0.1801
     13 N         139.5065  139.6069  164.8701 N.3     1  UNL1       -0.2697
     14 C         139.8578  138.2283  164.3947 C.3     1  UNL1        0.0722
     15 C         139.2712  137.7030  163.1180 C.3     1  UNL1        0.0187
     16 C         138.3333  138.5563  162.3167 C.3     1  UNL1        0.0183
     17 C         137.9820  139.9349  162.7921 C.3     1  UNL1        0.0670
     18 N         137.0440  140.7883  161.9907 N.3     1  UNL1       -0.3211
     19 C         138.5686  140.4602  164.0688 C.3     1  UNL1        0.0878
     20 H         136.9185  141.6864  162.4576 H       1  UNL1        0.1189
     21 H         136.1423  140.3185  161.9094 H       1  UNL1        0.1189
     22 O         142.0874  141.5879  165.1228 O.3     1  UNL1       -0.4778
     23 C         141.5208  142.6695  164.2516 C.ar    1  UNL1        0.1385
     24 C         140.4077  143.5366  164.7607 C.ar    1  UNL1        0.0376
     25 C         139.8411  144.6182  163.8894 C.ar    1  UNL1        0.0134
     26 C         140.3874  144.8326  162.5090 C.ar    1  UNL1        0.0686
     27 C         141.5005  143.9655  161.9998 C.ar    1  UNL1        0.0134
     28 C         142.0672  142.8840  162.8711 C.ar    1  UNL1        0.0376
     29 C         139.8208  145.9142  161.6377 C.1     1  UNL1        0.1004
     30 N         139.2542  146.9957  160.7664 N.1     1  UNL1       -0.1908
@<TRIPOS>BOND
     1     2     1    1
     2     2     3    1
     3     3     4    1
     4     4     5    1
     5     5     6    1
     6     5     7    1
     7     5     8    1
     8     9     8    1
     9     9    10    1
    10    10    11    1
    11    11    13    1
    12    13    14    1
    13    14    15    1
    14    15    16    1
    15    16    17    1
    16    17    18    1
    17    17    19    1
    18    11    12    1
    19    12    22    1
    20    22    23    1
    21    23    24   ar
    22    24    25   ar
    23    25    26   ar
    24    26    29    1
    25    29    30    3
    26    26    27   ar
    27    27    28   ar
    28     9     2    1
    29    19    13    1
    30    28    23   ar
    31    12     2    1
    32    18    20    1
    33    18    21    1
@<TRIPOS>MOLECULE
*****
 30 33 0 0 0
SMALL
GASTEIGER

@<TRIPOS>ATOM
      1 C         142.8118  138.9674  167.1076 C.3     1  UNL1        0.0036
      2 C         141.7085  139.8735  167.5678 C.3     1  UNL1        0.0386
      3 C         142.6904  139.5132  168.6429 C.3     1  UNL1        0.0091
      4 C         142.5141  140.0530  170.0312 C.3     1  UNL1        0.0667
      5 C         141.3559  140.9532  170.3444 C.3     1  UNL1        0.2639
      6 F         140.4266  141.8345  171.1252 F       1  UNL1       -0.2043
      7 F         142.0151  140.8989  171.6907 F       1  UNL1       -0.2043
      8 C         140.3739  141.3136  169.2693 C.3     1  UNL1        0.0667
      9 C         140.5502  140.7737  167.8810 C.3     1  UNL1        0.0103
     10 C         139.7499  140.9534  166.6251 C.3     1  UNL1        0.0199
     11 C         140.4135  140.1642  165.5357 C.3     1  UNL1        0.0978
     12 C         141.6240  139.4968  166.1183 C.3     1  UNL1        0.1801
     13 N         139.9484  140.0606  164.1134 N.3     1  UNL1       -0.2697
     14 C         140.3035  141.1343  163.1280 C.3     1  UNL1        0.0722
     15 C         139.8383  141.0307  161.7058 C.3     1  UNL1        0.0187
     16 C         139.0181  139.8533  161.2688 C.3     1  UNL1        0.0183
     17 C         138.6629  138.7796  162.2542 C.3     1  UNL1        0.0670
     18 N         137.8426  137.6022  161.8173 N.3     1  UNL1       -0.3211
     19 C         139.1281  138.8832  163.6765 C.3     1  UNL1        0.0878
     20 H         137.6974  136.9762  162.6094 H       1  UNL1        0.1189
     21 H         138.3327  137.1031  161.0749 H       1  UNL1        0.1189
     22 O         142.5818  138.6087  165.3809 O.3     1  UNL1       -0.4778
     23 C         142.9070  138.8862  163.9432 C.ar    1  UNL1        0.1385
     24 C         143.7295  140.0864  163.5784 C.ar    1  UNL1        0.0376
     25 C         144.0546  140.3639  162.1406 C.ar    1  UNL1        0.0134
     26 C         143.5573  139.4414  161.0676 C.ar    1  UNL1        0.0686
     27 C         142.7348  138.2411  161.4323 C.ar    1  UNL1        0.0134
     28 C         142.4097  137.9636  162.8701 C.ar    1  UNL1        0.0376
     29 C         143.8825  139.7189  159.6298 C.1     1  UNL1        0.1004
     30 N         144.2076  139.9964  158.1920 N.1     1  UNL1       -0.1908
@<TRIPOS>BOND
     1     2     1    1
     2     2     3    1
     3     3     4    1
     4     4     5    1
     5     5     6    1
     6     5     7    1
     7     5     8    1
     8     9     8    1
     9     9    10    1
    10    10    11    1
    11    11    13    1
    12    13    14    1
    13    14    15    1
    14    15    16    1
    15    16    17    1
    16    17    18    1
    17    17    19    1
    18    11    12    1
    19    12    22    1
    20    22    23    1
    21    23    24   ar
    22    24    25   ar
    23    25    26   ar
    24    26    29    1
    25    29    30    3
    26    26    27   ar
    27    27    28   ar
    28     9     2    1
    29    19    13    1
    30    28    23   ar
    31    12     2    1
    32    18    20    1
    33    18    21    1
@<TRIPOS>MOLECULE
*****
 30 33 0 0 0
SMALL
GASTEIGER

@<TRIPOS>ATOM
      1 C         142.8393  139.3824  167.4651 C.3     1  UNL1        0.0036
      2 C         141.9320  140.5478  167.7272 C.3     1  UNL1        0.0386
      3 C         142.1571  139.6692  168.9218 C.3     1  UNL1        0.0091
      4 C         141.4964  139.9958  170.2282 C.3     1  UNL1        0.0667
      5 C         140.6105  141.2011  170.3399 C.3     1  UNL1        0.2639
      6 F         139.6921  142.2246  170.9389 F       1  UNL1       -0.2043
      7 F         140.5167  140.6779  171.7426 F       1  UNL1       -0.2043
      8 C         140.3854  142.0797  169.1453 C.3     1  UNL1        0.0667
      9 C         141.0461  141.7531  167.8389 C.3     1  UNL1        0.0103
     10 C         141.0116  142.4287  166.5001 C.3     1  UNL1        0.0199
     11 C         141.8761  141.6409  165.5609 C.3     1  UNL1        0.0978
     12 C         142.4449  140.4785  166.3193 C.3     1  UNL1        0.1801
     13 N         142.1276  141.9596  164.1169 N.3     1  UNL1       -0.2697
     14 C         141.1421  141.5293  163.0712 C.3     1  UNL1        0.0722
     15 C         141.3936  141.8480  161.6272 C.3     1  UNL1        0.0187
     16 C         142.6306  142.5971  161.2289 C.3     1  UNL1        0.0183
     17 C         143.6161  143.0274  162.2746 C.3     1  UNL1        0.0670
     18 N         144.8532  143.7764  161.8763 N.3     1  UNL1       -0.3211
     19 C         143.3646  142.7087  163.7186 C.3     1  UNL1        0.0878
     20 H         145.4053  143.9875  162.7076 H       1  UNL1        0.1189
     21 H         144.5898  144.6462  161.4133 H       1  UNL1        0.1189
     22 O         143.3652  139.4307  165.7669 O.3     1  UNL1       -0.4778
     23 C         143.2644  139.0284  164.3254 C.ar    1  UNL1        0.1385
     24 C         142.0962  138.2141  163.8538 C.ar    1  UNL1        0.0376
     25 C         141.9955  137.8119  162.4123 C.ar    1  UNL1        0.0134
     26 C         143.0628  138.2239  161.4423 C.ar    1  UNL1        0.0686
     27 C         144.2310  139.0383  161.9137 C.ar    1  UNL1        0.0134
     28 C         144.3317  139.4405  163.3553 C.ar    1  UNL1        0.0376
     29 C         142.9620  137.8217  160.0007 C.1     1  UNL1        0.1004
     30 N         142.8613  137.4194  158.5592 N.1     1  UNL1       -0.1908
@<TRIPOS>BOND
     1     2     1    1
     2     2     3    1
     3     3     4    1
     4     4     5    1
     5     5     6    1
     6     5     7    1
     7     5     8    1
     8     9     8    1
     9     9    10    1
    10    10    11    1
    11    11    13    1
    12    13    14    1
    13    14    15    1
    14    15    16    1
    15    16    17    1
    16    17    18    1
    17    17    19    1
    18    11    12    1
    19    12    22    1
    20    22    23    1
    21    23    24   ar
    22    24    25   ar
    23    25    26   ar
    24    26    29    1
    25    29    30    3
    26    26    27   ar
    27    27    28   ar
    28     9     2    1
    29    19    13    1
    30    28    23   ar
    31    12     2    1
    32    18    20    1
    33    18    21    1
@<TRIPOS>MOLECULE
*****
 30 33 0 0 0
SMALL
GASTEIGER

@<TRIPOS>ATOM
      1 C         139.2770  139.5139  167.1300 C.3     1  UNL1        0.0036
      2 C         140.4649  140.3708  167.4532 C.3     1  UNL1        0.0386
      3 C         139.5476  140.1357  168.6165 C.3     1  UNL1        0.0091
      4 C         139.8614  140.7399  169.9531 C.3     1  UNL1        0.0667
      5 C         141.0925  141.5792  170.1264 C.3     1  UNL1        0.2639
      6 F         142.1300  142.4407  170.7830 F       1  UNL1       -0.2043
      7 F         140.5355  141.6432  171.5177 F       1  UNL1       -0.2043
      8 C         142.0098  141.8143  168.9632 C.3     1  UNL1        0.0667
      9 C         141.6960  141.2102  167.6266 C.3     1  UNL1        0.0103
     10 C         142.4078  141.2669  166.3074 C.3     1  UNL1        0.0199
     11 C         141.6167  140.4627  165.3188 C.3     1  UNL1        0.0978
     12 C         140.4160  139.9089  166.0270 C.3     1  UNL1        0.1801
     13 N         141.9652  140.2496  163.8755 N.3     1  UNL1       -0.2697
     14 C         141.5644  141.2673  162.8491 C.3     1  UNL1        0.0722
     15 C         141.9129  141.0543  161.4058 C.3     1  UNL1        0.0187
     16 C         142.6621  139.8235  160.9889 C.3     1  UNL1        0.0183
     17 C         143.0629  138.8058  162.0153 C.3     1  UNL1        0.0670
     18 N         143.8122  137.5750  161.5984 N.3     1  UNL1       -0.3211
     19 C         142.7144  139.0188  163.4586 C.3     1  UNL1        0.0878
     20 H         144.0014  136.9981  162.4181 H       1  UNL1        0.1189
     21 H         144.6936  137.8450  161.1619 H       1  UNL1        0.1189
     22 O         139.3528  139.0448  165.4162 O.3     1  UNL1       -0.4778
     23 C         138.9083  139.2877  164.0044 C.ar    1  UNL1        0.1385
     24 C         139.2211  138.2824  162.9360 C.ar    1  UNL1        0.0376
     25 C         138.7765  138.5254  161.5242 C.ar    1  UNL1        0.0134
     26 C         138.0191  139.7737  161.1806 C.ar    1  UNL1        0.0686
     27 C         137.7063  140.7791  162.2490 C.ar    1  UNL1        0.0134
     28 C         138.1509  140.5361  163.6608 C.ar    1  UNL1        0.0376
     29 C         137.5745  140.0167  159.7688 C.1     1  UNL1        0.1004
     30 N         137.1300  140.2597  158.3570 N.1     1  UNL1       -0.1908
@<TRIPOS>BOND
     1     2     1    1
     2     2     3    1
     3     3     4    1
     4     4     5    1
     5     5     6    1
     6     5     7    1
     7     5     8    1
     8     9     8    1
     9     9    10    1
    10    10    11    1
    11    11    13    1
    12    13    14    1
    13    14    15    1
    14    15    16    1
    15    16    17    1
    16    17    18    1
    17    17    19    1
    18    11    12    1
    19    12    22    1
    20    22    23    1
    21    23    24   ar
    22    24    25   ar
    23    25    26   ar
    24    26    29    1
    25    29    30    3
    26    26    27   ar
    27    27    28   ar
    28     9     2    1
    29    19    13    1
    30    28    23   ar
    31    12     2    1
    32    18    20    1
    33    18    21    1
@<TRIPOS>MOLECULE
*****
 30 33 0 0 0
SMALL
GASTEIGER

@<TRIPOS>ATOM
      1 C         142.0256  139.7649  166.1505 C.3     1  UNL1        0.0036
      2 C         141.6538  140.7022  167.2610 C.3     1  UNL1        0.0386
      3 C         142.4558  139.5156  167.7069 C.3     1  UNL1        0.0091
      4 C         142.8135  139.3533  169.1545 C.3     1  UNL1        0.0667
      5 C         142.3693  140.3776  170.1562 C.3     1  UNL1        0.2639
      6 F         142.1810  141.0737  171.4715 F       1  UNL1       -0.2043
      7 F         143.1059  139.4327  171.0589 F       1  UNL1       -0.2043
      8 C         141.5674  141.5642  169.7104 C.3     1  UNL1        0.0667
      9 C         141.2096  141.7265  168.2628 C.3     1  UNL1        0.0103
     10 C         140.4356  142.7837  167.5326 C.3     1  UNL1        0.0199
     11 C         140.4014  142.4128  166.0796 C.3     1  UNL1        0.0978
     12 C         141.1543  141.1263  165.9117 C.3     1  UNL1        0.1801
     13 N         139.7318  143.1916  164.9863 N.3     1  UNL1       -0.2697
     14 C         138.3388  142.8369  164.5578 C.3     1  UNL1        0.0722
     15 C         137.6692  143.6157  163.4646 C.3     1  UNL1        0.0187
     16 C         138.3926  144.7492  162.7999 C.3     1  UNL1        0.0183
     17 C         139.7857  145.1038  163.2284 C.3     1  UNL1        0.0670
     18 N         140.5092  146.2373  162.5637 N.3     1  UNL1       -0.3211
     19 C         140.4552  144.3250  164.3216 C.3     1  UNL1        0.0878
     20 H         141.4366  146.3372  162.9763 H       1  UNL1        0.1189
     21 H         139.9831  147.1010  162.6966 H       1  UNL1        0.1189
     22 O         141.3698  140.3928  164.6212 O.3     1  UNL1       -0.4778
     23 C         141.6699  141.1564  163.3655 C.ar    1  UNL1        0.1385
     24 C         140.6745  141.1759  162.2435 C.ar    1  UNL1        0.0376
     25 C         140.9746  141.9395  160.9878 C.ar    1  UNL1        0.0134
     26 C         142.2700  142.6837  160.8541 C.ar    1  UNL1        0.0686
     27 C         143.2655  142.6643  161.9760 C.ar    1  UNL1        0.0134
     28 C         142.9654  141.9007  163.2317 C.ar    1  UNL1        0.0376
     29 C         142.5701  143.4473  159.5984 C.1     1  UNL1        0.1004
     30 N         142.8702  144.2110  158.3427 N.1     1  UNL1       -0.1908
@<TRIPOS>BOND
     1     2     1    1
     2     2     3    1
     3     3     4    1
     4     4     5    1
     5     5     6    1
     6     5     7    1
     7     5     8    1
     8     9     8    1
     9     9    10    1
    10    10    11    1
    11    11    13    1
    12    13    14    1
    13    14    15    1
    14    15    16    1
    15    16    17    1
    16    17    18    1
    17    17    19    1
    18    11    12    1
    19    12    22    1
    20    22    23    1
    21    23    24   ar
    22    24    25   ar
    23    25    26   ar
    24    26    29    1
    25    29    30    3
    26    26    27   ar
    27    27    28   ar
    28     9     2    1
    29    19    13    1
    30    28    23   ar
    31    12     2    1
    32    18    20    1
    33    18    21    1
@<TRIPOS>MOLECULE
*****
 30 33 0 0 0
SMALL
GASTEIGER

@<TRIPOS>ATOM
      1 C         139.5778  140.7068  167.2575 C.3     1  UNL1        0.0036
      2 C         140.9004  140.1155  167.6463 C.3     1  UNL1        0.0386
      3 C         140.1783  140.7901  168.7747 C.3     1  UNL1        0.0091
      4 C         140.7925  140.8270  170.1427 C.3     1  UNL1        0.0667
      5 C         142.1289  140.1893  170.3821 C.3     1  UNL1        0.2639
      6 F         143.3634  139.7306  171.1002 F       1  UNL1       -0.2043
      7 F         141.8355  140.7046  171.7600 F       1  UNL1       -0.2043
      8 C         142.8511  139.5147  169.2537 C.3     1  UNL1        0.0667
      9 C         142.2368  139.4778  167.8858 C.3     1  UNL1        0.0103
     10 C         142.7090  138.8901  166.5890 C.3     1  UNL1        0.0199
     11 C         141.6644  139.1645  165.5480 C.3     1  UNL1        0.0978
     12 C         140.5467  139.9219  166.2015 C.3     1  UNL1        0.1801
     13 N         141.7267  138.7538  164.1067 N.3     1  UNL1       -0.2697
     14 C         143.0506  138.6742  163.4061 C.3     1  UNL1        0.0722
     15 C         143.1128  138.2634  161.9647 C.3     1  UNL1        0.0187
     16 C         141.8512  137.9322  161.2241 C.3     1  UNL1        0.0183
     17 C         140.5273  138.0118  161.9248 C.3     1  UNL1        0.0670
     18 N         139.2656  137.6805  161.1841 N.3     1  UNL1       -0.3211
     19 C         140.4651  138.4225  163.3661 C.3     1  UNL1        0.0878
     20 H         138.4666  137.7870  161.8091 H       1  UNL1        0.1189
     21 H         139.3102  136.7178  160.8502 H       1  UNL1        0.1189
     22 O         139.2949  140.4015  165.5284 O.3     1  UNL1       -0.4778
     23 C         139.3209  141.6507  164.6986 C.ar    1  UNL1        0.1385
     24 C         138.0428  142.3718  164.3882 C.ar    1  UNL1        0.0376
     25 C         138.0689  143.6211  163.5584 C.ar    1  UNL1        0.0134
     26 C         139.3731  144.1493  163.0388 C.ar    1  UNL1        0.0686
     27 C         140.6513  143.4282  163.3491 C.ar    1  UNL1        0.0134
     28 C         140.6252  142.1789  164.1790 C.ar    1  UNL1        0.0376
     29 C         139.3992  145.3985  162.2090 C.1     1  UNL1        0.1004
     30 N         139.4253  146.6478  161.3791 N.1     1  UNL1       -0.1908
@<TRIPOS>BOND
     1     2     1    1
     2     2     3    1
     3     3     4    1
     4     4     5    1
     5     5     6    1
     6     5     7    1
     7     5     8    1
     8     9     8    1
     9     9    10    1
    10    10    11    1
    11    11    13    1
    12    13    14    1
    13    14    15    1
    14    15    16    1
    15    16    17    1
    16    17    18    1
    17    17    19    1
    18    11    12    1
    19    12    22    1
    20    22    23    1
    21    23    24   ar
    22    24    25   ar
    23    25    26   ar
    24    26    29    1
    25    29    30    3
    26    26    27   ar
    27    27    28   ar
    28     9     2    1
    29    19    13    1
    30    28    23   ar
    31    12     2    1
    32    18    20    1
    33    18    21    1
@<TRIPOS>MOLECULE
*****
 30 33 0 0 0
SMALL
GASTEIGER

@<TRIPOS>ATOM
      1 C         140.3804  142.9796  166.2637 C.3     1  UNL1        0.0036
      2 C         140.1701  141.7441  167.0879 C.3     1  UNL1        0.0386
      3 C         140.4070  142.9845  167.8973 C.3     1  UNL1        0.0091
      4 C         140.4174  142.9117  169.3955 C.3     1  UNL1        0.0667
      5 C         140.1910  141.5985  170.0842 C.3     1  UNL1        0.2639
      6 F         140.0271  140.5952  171.1871 F       1  UNL1       -0.2043
      7 F         140.3710  142.4905  171.2767 F       1  UNL1       -0.2043
      8 C         139.9542  140.3581  169.2748 C.3     1  UNL1        0.0667
      9 C         139.9437  140.4309  167.7766 C.3     1  UNL1        0.0103
     10 C         139.7380  139.3839  166.7223 C.3     1  UNL1        0.0199
     11 C         139.8372  140.0500  165.3820 C.3     1  UNL1        0.0978
     12 C         140.1043  141.5086  165.6079 C.3     1  UNL1        0.1801
     13 N         139.6945  139.3759  164.0496 N.3     1  UNL1       -0.2697
     14 C         138.3780  139.4055  163.3314 C.3     1  UNL1        0.0722
     15 C         138.2352  138.7313  161.9990 C.3     1  UNL1        0.0187
     16 C         139.4089  138.0275  161.3850 C.3     1  UNL1        0.0183
     17 C         140.7254  137.9979  162.1032 C.3     1  UNL1        0.0670
     18 N         141.8992  137.2942  161.4892 N.3     1  UNL1       -0.3211
     19 C         140.8682  138.6721  163.4356 C.3     1  UNL1        0.0878
     20 H         142.7053  137.3732  162.1090 H       1  UNL1        0.1189
     21 H         142.1190  137.7212  160.5893 H       1  UNL1        0.1189
     22 O         140.2755  142.5492  164.5412 O.3     1  UNL1       -0.4778
     23 C         141.0653  142.2339  163.3057 C.ar    1  UNL1        0.1385
     24 C         140.3811  142.1785  161.9719 C.ar    1  UNL1        0.0376
     25 C         141.1710  141.8631  160.7364 C.ar    1  UNL1        0.0134
     26 C         142.6450  141.6032  160.8344 C.ar    1  UNL1        0.0686
     27 C         143.3293  141.6586  162.1682 C.ar    1  UNL1        0.0134
     28 C         142.5394  141.9740  163.4037 C.ar    1  UNL1        0.0376
     29 C         143.4349  141.2878  159.5989 C.1     1  UNL1        0.1004
     30 N         144.2247  140.9725  158.3633 N.1     1  UNL1       -0.1908
@<TRIPOS>BOND
     1     2     1    1
     2     2     3    1
     3     3     4    1
     4     4     5    1
     5     5     6    1
     6     5     7    1
     7     5     8    1
     8     9     8    1
     9     9    10    1
    10    10    11    1
    11    11    13    1
    12    13    14    1
    13    14    15    1
    14    15    16    1
    15    16    17    1
    16    17    18    1
    17    17    19    1
    18    11    12    1
    19    12    22    1
    20    22    23    1
    21    23    24   ar
    22    24    25   ar
    23    25    26   ar
    24    26    29    1
    25    29    30    3
    26    26    27   ar
    27    27    28   ar
    28     9     2    1
    29    19    13    1
    30    28    23   ar
    31    12     2    1
    32    18    20    1
    33    18    21    1
