@<TRIPOS>MOLECULE
*****
 32 35 0 0 0
SMALL
GASTEIGER

@<TRIPOS>ATOM
      1 N         139.4155  143.0102  162.8544 N.am    1  UNL1       -0.2806
      2 C         140.2809  142.5665  161.7125 C.2     1  UNL1        0.2495
      3 O         141.1064  141.3203  161.8371 O.2     1  UNL1       -0.2698
      4 H         138.8737  143.8281  162.7726 H       1  UNL1        0.1552
      5 C         137.7109  140.5468  163.0165 C.3     1  UNL1        0.0323
      6 C         138.5233  140.9761  164.2022 C.ar    1  UNL1       -0.0087
      7 C         138.4834  140.1736  165.4688 C.ar    1  UNL1       -0.0072
      8 C         139.2958  140.6029  166.6545 C.ar    1  UNL1       -0.0206
      9 C         139.2559  139.8004  167.9212 C.3     1  UNL1        0.0311
     10 C         140.1481  141.8345  166.5735 C.ar    1  UNL1        0.0164
     11 C         140.1880  142.6369  165.3068 C.ar    1  UNL1        0.0156
     12 C         139.3756  142.2077  164.1212 C.ar    1  UNL1        0.0465
     13 C         140.9605  142.2637  167.7591 C.ar    1  UNL1        0.0999
     14 C         142.4077  141.9490  167.9970 C.ar    1  UNL1        0.0965
     15 N         142.8099  142.5738  169.3000 N.ar    1  UNL1       -0.3059
     16 C         144.1717  142.5090  169.9256 C.3     1  UNL1        0.1321
     17 C         141.6114  143.2748  169.8674 C.ar    1  UNL1        0.1786
     18 N         140.4684  143.0831  168.9152 N.ar    1  UNL1       -0.2239
     19 C         140.3208  143.3690  160.4458 C.ar    1  UNL1        0.0539
     20 C         141.0516  144.6785  160.4103 C.ar    1  UNL1        0.0076
     21 C         141.0915  145.4810  159.1437 C.ar    1  UNL1        0.0371
     22 C         140.4007  144.9740  157.9125 C.ar    1  UNL1        0.1391
     23 C         139.6700  143.6645  157.9480 C.ar    1  UNL1        0.0371
     24 C         139.6301  142.8620  159.2146 C.ar    1  UNL1        0.0076
     25 O         140.4407  145.7765  156.6458 O.3     1  UNL1       -0.4690
     26 C         139.1764  146.3586  156.0866 C.3     1  UNL1        0.2508
     27 C         139.0824  147.8319  155.8210 C.ar    1  UNL1        0.1026
     28 C         139.5926  148.3949  154.5277 C.ar    1  UNL1        0.0185
     29 C         139.4986  149.8681  154.2621 C.ar    1  UNL1        0.0029
     30 C         138.8944  150.7785  155.2898 C.ar    1  UNL1        0.0207
     31 C         138.3842  150.2155  156.5832 C.ar    1  UNL1        0.0986
     32 N         138.4782  148.7422  156.8488 N.ar    1  UNL1       -0.2445
@<TRIPOS>BOND
     1     5     6    1
     2     6     7   ar
     3     7     8   ar
     4     8     9    1
     5     8    10   ar
     6    10    13    1
     7    13    14   ar
     8    14    15   ar
     9    15    16    1
    10    15    17   ar
    11    17    18   ar
    12    10    11   ar
    13    11    12   ar
    14    12     1    1
    15     1     2   am
    16     2     3    2
    17     2    19    1
    18    19    20   ar
    19    20    21   ar
    20    21    22   ar
    21    22    25    1
    22    25    26    1
    23    26    27    1
    24    27    28   ar
    25    28    29   ar
    26    29    30   ar
    27    30    31   ar
    28    31    32   ar
    29    22    23   ar
    30    23    24   ar
    31    12     6   ar
    32    24    19   ar
    33    18    13   ar
    34    32    27   ar
    35     1     4    1
@<TRIPOS>MOLECULE
*****
 32 35 0 0 0
SMALL
GASTEIGER

@<TRIPOS>ATOM
      1 N         141.4602  144.1364  161.5558 N.am    1  UNL1       -0.2806
      2 C         142.0896  143.6747  160.2749 C.2     1  UNL1        0.2495
      3 O         143.0303  142.5063  160.2800 O.2     1  UNL1       -0.2698
      4 H         140.8428  144.9032  161.5524 H       1  UNL1        0.1552
      5 C         143.7219  145.0886  163.2814 C.3     1  UNL1        0.0323
      6 C         142.9022  143.9058  163.7046 C.ar    1  UNL1       -0.0087
      7 C         143.2134  143.1991  164.9906 C.ar    1  UNL1       -0.0072
      8 C         142.3937  142.0163  165.4137 C.ar    1  UNL1       -0.0206
      9 C         142.7049  141.3096  166.6997 C.3     1  UNL1        0.0311
     10 C         141.2628  141.5402  164.5509 C.ar    1  UNL1        0.0164
     11 C         140.9517  142.2469  163.2650 C.ar    1  UNL1        0.0156
     12 C         141.7714  143.4297  162.8418 C.ar    1  UNL1        0.0465
     13 C         140.4432  140.3573  164.9741 C.ar    1  UNL1        0.0999
     14 C         139.3261  140.3714  165.9750 C.ar    1  UNL1        0.0965
     15 N         138.7891  138.9756  166.0902 N.ar    1  UNL1       -0.3059
     16 C         137.6644  138.5341  166.9790 C.3     1  UNL1        0.1321
     17 C         139.5744  138.0987  165.1603 C.ar    1  UNL1        0.1786
     18 N         140.5966  138.9527  164.4706 N.ar    1  UNL1       -0.2239
     19 C         141.7784  144.3814  158.9889 C.ar    1  UNL1        0.0539
     20 C         142.6214  144.1325  157.7734 C.ar    1  UNL1        0.0076
     21 C         142.3102  144.8392  156.4874 C.ar    1  UNL1        0.0371
     22 C         141.1561  145.7947  156.4169 C.ar    1  UNL1        0.1391
     23 C         140.3132  146.0435  157.6325 C.ar    1  UNL1        0.0371
     24 C         140.6243  145.3369  158.9185 C.ar    1  UNL1        0.0076
     25 O         140.8449  146.5014  155.1309 O.3     1  UNL1       -0.4690
     26 C         139.4736  147.0621  154.8961 C.3     1  UNL1        0.2508
     27 C         139.2642  148.5473  154.8749 C.ar    1  UNL1        0.1026
     28 C         138.6441  149.2342  156.0554 C.ar    1  UNL1        0.0185
     29 C         138.4347  150.7193  156.0342 C.ar    1  UNL1        0.0029
     30 C         138.8453  151.5176  154.8324 C.ar    1  UNL1        0.0207
     31 C         139.4653  150.8306  153.6519 C.ar    1  UNL1        0.0986
     32 N         139.6747  149.3454  153.6731 N.ar    1  UNL1       -0.2445
@<TRIPOS>BOND
     1     5     6    1
     2     6     7   ar
     3     7     8   ar
     4     8     9    1
     5     8    10   ar
     6    10    13    1
     7    13    14   ar
     8    14    15   ar
     9    15    16    1
    10    15    17   ar
    11    17    18   ar
    12    10    11   ar
    13    11    12   ar
    14    12     1    1
    15     1     2   am
    16     2     3    2
    17     2    19    1
    18    19    20   ar
    19    20    21   ar
    20    21    22   ar
    21    22    25    1
    22    25    26    1
    23    26    27    1
    24    27    28   ar
    25    28    29   ar
    26    29    30   ar
    27    30    31   ar
    28    31    32   ar
    29    22    23   ar
    30    23    24   ar
    31    12     6   ar
    32    24    19   ar
    33    18    13   ar
    34    32    27   ar
    35     1     4    1
@<TRIPOS>MOLECULE
*****
 32 35 0 0 0
SMALL
GASTEIGER

@<TRIPOS>ATOM
      1 N         139.2418  139.4724  160.0446 N.am    1  UNL1       -0.2806
      2 C         140.6707  139.3358  159.6093 C.2     1  UNL1        0.2495
      3 O         141.7457  140.1126  160.3099 O.2     1  UNL1       -0.2698
      4 H         138.5362  138.9625  159.5847 H       1  UNL1        0.1552
      5 C         138.3821  142.2926  159.4899 C.3     1  UNL1        0.0323
      6 C         138.4580  141.7958  160.9033 C.ar    1  UNL1       -0.0087
      7 C         138.1041  142.7092  162.0393 C.ar    1  UNL1       -0.0072
      8 C         138.1800  142.2124  163.4526 C.ar    1  UNL1       -0.0206
      9 C         137.8260  143.1259  164.5886 C.3     1  UNL1        0.0311
     10 C         138.6098  140.8024  163.7299 C.ar    1  UNL1        0.0164
     11 C         138.9637  139.8891  162.5939 C.ar    1  UNL1        0.0156
     12 C         138.8878  140.3858  161.1806 C.ar    1  UNL1        0.0465
     13 C         138.6857  140.3057  165.1433 C.ar    1  UNL1        0.0999
     14 C         139.6831  140.7373  166.1772 C.ar    1  UNL1        0.0965
     15 N         139.3913  139.9885  167.4437 N.ar    1  UNL1       -0.3059
     16 C         140.1450  140.1124  168.7347 C.3     1  UNL1        0.1321
     17 C         138.2137  139.0941  167.1926 C.ar    1  UNL1        0.1786
     18 N         137.7776  139.2901  165.7709 N.ar    1  UNL1       -0.2239
     19 C         141.0246  138.4224  158.4733 C.ar    1  UNL1        0.0539
     20 C         142.4416  137.9648  158.2924 C.ar    1  UNL1        0.0076
     21 C         142.7956  137.0514  157.1564 C.ar    1  UNL1        0.0371
     22 C         141.7326  136.5956  156.2014 C.ar    1  UNL1        0.1391
     23 C         140.3156  137.0532  156.3823 C.ar    1  UNL1        0.0371
     24 C         139.9616  137.9666  157.5182 C.ar    1  UNL1        0.0076
     25 O         142.0865  135.6822  155.0653 O.3     1  UNL1       -0.4690
     26 C         141.8946  134.2012  155.2061 C.3     1  UNL1        0.2508
     27 C         142.9717  133.3609  155.8255 C.ar    1  UNL1        0.1026
     28 C         143.5029  132.1638  155.0941 C.ar    1  UNL1        0.0185
     29 C         144.5799  131.3235  155.7135 C.ar    1  UNL1        0.0029
     30 C         145.1260  131.6803  157.0644 C.ar    1  UNL1        0.0207
     31 C         144.5948  132.8774  157.7957 C.ar    1  UNL1        0.0986
     32 N         143.5177  133.7177  157.1762 N.ar    1  UNL1       -0.2445
@<TRIPOS>BOND
     1     5     6    1
     2     6     7   ar
     3     7     8   ar
     4     8     9    1
     5     8    10   ar
     6    10    13    1
     7    13    14   ar
     8    14    15   ar
     9    15    16    1
    10    15    17   ar
    11    17    18   ar
    12    10    11   ar
    13    11    12   ar
    14    12     1    1
    15     1     2   am
    16     2     3    2
    17     2    19    1
    18    19    20   ar
    19    20    21   ar
    20    21    22   ar
    21    22    25    1
    22    25    26    1
    23    26    27    1
    24    27    28   ar
    25    28    29   ar
    26    29    30   ar
    27    30    31   ar
    28    31    32   ar
    29    22    23   ar
    30    23    24   ar
    31    12     6   ar
    32    24    19   ar
    33    18    13   ar
    34    32    27   ar
    35     1     4    1
@<TRIPOS>MOLECULE
*****
 32 35 0 0 0
SMALL
GASTEIGER

@<TRIPOS>ATOM
      1 N         139.9747  139.8008  162.3499 N.am    1  UNL1       -0.2806
      2 C         139.0365  138.9473  163.1507 C.2     1  UNL1        0.2495
      3 O         138.1884  137.9177  162.4646 O.2     1  UNL1       -0.2698
      4 H         140.5313  140.4766  162.8003 H       1  UNL1        0.1552
      5 C         142.0807  138.0158  161.1758 C.3     1  UNL1        0.0323
      6 C         141.1179  138.7323  160.2759 C.ar    1  UNL1       -0.0087
      7 C         141.2081  138.5562  158.7891 C.ar    1  UNL1       -0.0072
      8 C         140.2452  139.2726  157.8892 C.ar    1  UNL1       -0.0206
      9 C         140.3354  139.0966  156.4023 C.3     1  UNL1        0.0311
     10 C         139.1922  140.1651  158.4763 C.ar    1  UNL1        0.0164
     11 C         139.1021  140.3411  159.9632 C.ar    1  UNL1        0.0156
     12 C         140.0649  139.6247  160.8630 C.ar    1  UNL1        0.0465
     13 C         138.2294  140.8815  157.5765 C.ar    1  UNL1        0.0999
     14 C         138.4016  142.2656  157.0244 C.ar    1  UNL1        0.0965
     15 N         137.2039  142.5792  156.1775 N.ar    1  UNL1       -0.3059
     16 C         136.9613  143.8584  155.4327 C.3     1  UNL1        0.1321
     17 C         136.2915  141.3889  156.2060 C.ar    1  UNL1        0.1786
     18 N         136.9253  140.3397  157.0707 N.ar    1  UNL1       -0.2239
     19 C         138.9463  139.1234  164.6376 C.ar    1  UNL1        0.0539
     20 C         139.6115  140.2958  165.2957 C.ar    1  UNL1        0.0076
     21 C         139.5213  140.4719  166.7826 C.ar    1  UNL1        0.0371
     22 C         138.7660  139.4756  167.6114 C.ar    1  UNL1        0.1391
     23 C         138.1008  138.3033  166.9533 C.ar    1  UNL1        0.0371
     24 C         138.1909  138.1272  165.4664 C.ar    1  UNL1        0.0076
     25 O         138.6758  139.6517  169.0983 O.3     1  UNL1       -0.4690
     26 C         139.1670  140.9181  169.7347 C.3     1  UNL1        0.2508
     27 C         140.6394  141.1888  169.8273 C.ar    1  UNL1        0.1026
     28 C         141.1679  142.5648  169.5491 C.ar    1  UNL1        0.0185
     29 C         142.6403  142.8355  169.6417 C.ar    1  UNL1        0.0029
     30 C         143.5843  141.7303  170.0124 C.ar    1  UNL1        0.0207
     31 C         143.0558  140.3543  170.2906 C.ar    1  UNL1        0.0986
     32 N         141.5833  140.0836  170.1980 N.ar    1  UNL1       -0.2445
@<TRIPOS>BOND
     1     5     6    1
     2     6     7   ar
     3     7     8   ar
     4     8     9    1
     5     8    10   ar
     6    10    13    1
     7    13    14   ar
     8    14    15   ar
     9    15    16    1
    10    15    17   ar
    11    17    18   ar
    12    10    11   ar
    13    11    12   ar
    14    12     1    1
    15     1     2   am
    16     2     3    2
    17     2    19    1
    18    19    20   ar
    19    20    21   ar
    20    21    22   ar
    21    22    25    1
    22    25    26    1
    23    26    27    1
    24    27    28   ar
    25    28    29   ar
    26    29    30   ar
    27    30    31   ar
    28    31    32   ar
    29    22    23   ar
    30    23    24   ar
    31    12     6   ar
    32    24    19   ar
    33    18    13   ar
    34    32    27   ar
    35     1     4    1
@<TRIPOS>MOLECULE
*****
 32 35 0 0 0
SMALL
GASTEIGER

@<TRIPOS>ATOM
      1 N         142.3650  139.1519  160.6289 N.am    1  UNL1       -0.2806
      2 C         143.1699  138.5106  161.7201 C.2     1  UNL1        0.2495
      3 O         144.3094  137.5984  161.3745 O.2     1  UNL1       -0.2698
      4 H         141.6171  139.7506  160.8558 H       1  UNL1        0.1552
      5 C         143.7051  141.2668  158.9763 C.3     1  UNL1        0.0323
      6 C         143.3696  139.9384  158.3657 C.ar    1  UNL1       -0.0087
      7 C         143.7041  139.6675  156.9288 C.ar    1  UNL1       -0.0072
      8 C         143.3685  138.3391  156.3182 C.ar    1  UNL1       -0.0206
      9 C         143.7031  138.0682  154.8812 C.3     1  UNL1        0.0311
     10 C         142.6985  137.2817  157.1445 C.ar    1  UNL1        0.0164
     11 C         142.3640  137.5526  158.5813 C.ar    1  UNL1        0.0156
     12 C         142.6995  138.8810  159.1919 C.ar    1  UNL1        0.0465
     13 C         142.3629  135.9533  156.5339 C.ar    1  UNL1        0.0999
     14 C         143.0242  134.6448  156.8510 C.ar    1  UNL1        0.0965
     15 N         142.3772  133.5830  156.0121 N.ar    1  UNL1       -0.3059
     16 C         142.7295  132.1250  156.0093 C.3     1  UNL1        0.1321
     17 C         141.3159  134.2352  155.1764 C.ar    1  UNL1        0.1786
     18 N         141.3072  135.7001  155.4989 N.ar    1  UNL1       -0.2239
     19 C         142.8354  138.7815  163.1571 C.ar    1  UNL1        0.0539
     20 C         143.5511  139.8694  163.9015 C.ar    1  UNL1        0.0076
     21 C         143.2166  140.1403  165.3384 C.ar    1  UNL1        0.0371
     22 C         142.1664  139.3233  166.0308 C.ar    1  UNL1        0.1391
     23 C         141.4507  138.2354  165.2864 C.ar    1  UNL1        0.0371
     24 C         141.7852  137.9645  163.8495 C.ar    1  UNL1        0.0076
     25 O         141.8319  139.5942  167.4678 O.3     1  UNL1       -0.4690
     26 C         140.6499  140.4503  167.8141 C.3     1  UNL1        0.2508
     27 C         140.0200  141.3188  166.7659 C.ar    1  UNL1        0.1026
     28 C         140.4582  142.7450  166.6110 C.ar    1  UNL1        0.0185
     29 C         139.8284  143.6135  165.5627 C.ar    1  UNL1        0.0029
     30 C         138.7603  143.0559  164.6693 C.ar    1  UNL1        0.0207
     31 C         138.3221  141.6297  164.8241 C.ar    1  UNL1        0.0986
     32 N         138.9520  140.7612  165.8725 N.ar    1  UNL1       -0.2445
@<TRIPOS>BOND
     1     5     6    1
     2     6     7   ar
     3     7     8   ar
     4     8     9    1
     5     8    10   ar
     6    10    13    1
     7    13    14   ar
     8    14    15   ar
     9    15    16    1
    10    15    17   ar
    11    17    18   ar
    12    10    11   ar
    13    11    12   ar
    14    12     1    1
    15     1     2   am
    16     2     3    2
    17     2    19    1
    18    19    20   ar
    19    20    21   ar
    20    21    22   ar
    21    22    25    1
    22    25    26    1
    23    26    27    1
    24    27    28   ar
    25    28    29   ar
    26    29    30   ar
    27    30    31   ar
    28    31    32   ar
    29    22    23   ar
    30    23    24   ar
    31    12     6   ar
    32    24    19   ar
    33    18    13   ar
    34    32    27   ar
    35     1     4    1
@<TRIPOS>MOLECULE
*****
 32 35 0 0 0
SMALL
GASTEIGER

@<TRIPOS>ATOM
      1 N         141.9100  141.6537  161.6444 N.am    1  UNL1       -0.2806
      2 C         142.7243  142.8293  161.1921 C.2     1  UNL1        0.2495
      3 O         143.9717  143.2078  161.9343 O.2     1  UNL1       -0.2698
      4 H         141.0913  141.4053  161.1572 H       1  UNL1        0.1552
      5 C         143.8718  139.4075  161.3178 C.3     1  UNL1        0.0323
      6 C         143.3239  139.7333  162.6756 C.ar    1  UNL1       -0.0087
      7 C         143.7568  138.9361  163.8701 C.ar    1  UNL1       -0.0072
      8 C         143.2089  139.2618  165.2279 C.ar    1  UNL1       -0.0206
      9 C         143.6419  138.4645  166.4225 C.3     1  UNL1        0.0311
     10 C         142.2281  140.3849  165.3912 C.ar    1  UNL1        0.0164
     11 C         141.7951  141.1821  164.1967 C.ar    1  UNL1        0.0156
     12 C         142.3430  140.8563  162.8389 C.ar    1  UNL1        0.0465
     13 C         141.6802  140.7106  166.7491 C.ar    1  UNL1        0.0999
     14 C         140.4347  140.1378  167.3579 C.ar    1  UNL1        0.0965
     15 N         140.2663  140.7396  168.7216 N.ar    1  UNL1       -0.3059
     16 C         139.1521  140.4478  169.6826 C.3     1  UNL1        0.1321
     17 C         141.4077  141.6843  168.9555 C.ar    1  UNL1        0.1786
     18 N         142.2815  141.6664  167.7364 N.ar    1  UNL1       -0.2239
     19 C         142.2913  143.6267  159.9976 C.ar    1  UNL1        0.0539
     20 C         142.9243  143.3782  158.6605 C.ar    1  UNL1        0.0076
     21 C         142.4913  144.1755  157.4660 C.ar    1  UNL1        0.0371
     22 C         141.4255  145.2212  157.6085 C.ar    1  UNL1        0.1391
     23 C         140.7925  145.4696  158.9456 C.ar    1  UNL1        0.0371
     24 C         141.2255  144.6724  160.1401 C.ar    1  UNL1        0.0076
     25 O         140.9925  146.0185  156.4140 O.3     1  UNL1       -0.4690
     26 C         139.5650  146.4610  156.2850 C.3     1  UNL1        0.2508
     27 C         139.2475  147.9044  156.0290 C.ar    1  UNL1        0.1026
     28 C         138.5385  148.7132  157.0745 C.ar    1  UNL1        0.0185
     29 C         138.2209  150.1567  156.8185 C.ar    1  UNL1        0.0029
     30 C         138.6123  150.7914  155.5170 C.ar    1  UNL1        0.0207
     31 C         139.3213  149.9826  154.4714 C.ar    1  UNL1        0.0986
     32 N         139.6389  148.5390  154.7275 N.ar    1  UNL1       -0.2445
@<TRIPOS>BOND
     1     5     6    1
     2     6     7   ar
     3     7     8   ar
     4     8     9    1
     5     8    10   ar
     6    10    13    1
     7    13    14   ar
     8    14    15   ar
     9    15    16    1
    10    15    17   ar
    11    17    18   ar
    12    10    11   ar
    13    11    12   ar
    14    12     1    1
    15     1     2   am
    16     2     3    2
    17     2    19    1
    18    19    20   ar
    19    20    21   ar
    20    21    22   ar
    21    22    25    1
    22    25    26    1
    23    26    27    1
    24    27    28   ar
    25    28    29   ar
    26    29    30   ar
    27    30    31   ar
    28    31    32   ar
    29    22    23   ar
    30    23    24   ar
    31    12     6   ar
    32    24    19   ar
    33    18    13   ar
    34    32    27   ar
    35     1     4    1
@<TRIPOS>MOLECULE
*****
 32 35 0 0 0
SMALL
GASTEIGER

@<TRIPOS>ATOM
      1 N         141.6821  139.8140  162.2627 N.am    1  UNL1       -0.2806
      2 C         141.4569  141.0188  161.3981 C.2     1  UNL1        0.2495
      3 O         140.3362  141.9661  161.7090 O.2     1  UNL1       -0.2698
      4 H         142.4177  139.1922  162.0587 H       1  UNL1        0.1552
      5 C         139.3577  137.9363  161.9949 C.3     1  UNL1        0.0323
      6 C         139.6245  138.6176  163.3044 C.ar    1  UNL1       -0.0087
      7 C         138.7291  138.3601  164.4799 C.ar    1  UNL1       -0.0072
      8 C         138.9959  139.0413  165.7894 C.ar    1  UNL1       -0.0206
      9 C         138.1004  138.7838  166.9649 C.3     1  UNL1        0.0311
     10 C         140.1580  139.9801  165.9233 C.ar    1  UNL1        0.0164
     11 C         141.0534  140.2377  164.7478 C.ar    1  UNL1        0.0156
     12 C         140.7866  139.5564  163.4383 C.ar    1  UNL1        0.0465
     13 C         140.4248  140.6614  167.2328 C.ar    1  UNL1        0.0999
     14 C         140.2049  142.1148  167.5314 C.ar    1  UNL1        0.0965
     15 N         140.6025  142.3606  168.9567 N.ar    1  UNL1       -0.3059
     16 C         140.5446  143.6768  169.6738 C.3     1  UNL1        0.1321
     17 C         141.0682  141.0590  169.5390 C.ar    1  UNL1        0.1786
     18 N         140.9584  140.0089  168.4735 N.ar    1  UNL1       -0.2239
     19 C         142.3523  141.2764  160.2226 C.ar    1  UNL1        0.0539
     20 C         143.5868  142.1120  160.3890 C.ar    1  UNL1        0.0076
     21 C         144.4822  142.3696  159.2135 C.ar    1  UNL1        0.0371
     22 C         144.1432  141.7915  157.8716 C.ar    1  UNL1        0.1391
     23 C         142.9087  140.9558  157.7052 C.ar    1  UNL1        0.0371
     24 C         142.0133  140.6983  158.8806 C.ar    1  UNL1        0.0076
     25 O         145.0387  142.0491  156.6961 O.3     1  UNL1       -0.4690
     26 C         146.5019  142.3017  156.9090 C.3     1  UNL1        0.2508
     27 C         147.3992  142.5490  155.7327 C.ar    1  UNL1        0.1026
     28 C         148.6847  141.7881  155.5969 C.ar    1  UNL1        0.0185
     29 C         149.5820  142.0354  154.4207 C.ar    1  UNL1        0.0029
     30 C         149.1939  143.0438  153.3802 C.ar    1  UNL1        0.0207
     31 C         147.9083  143.8047  153.5159 C.ar    1  UNL1        0.0986
     32 N         147.0110  143.5573  154.6923 N.ar    1  UNL1       -0.2445
@<TRIPOS>BOND
     1     5     6    1
     2     6     7   ar
     3     7     8   ar
     4     8     9    1
     5     8    10   ar
     6    10    13    1
     7    13    14   ar
     8    14    15   ar
     9    15    16    1
    10    15    17   ar
    11    17    18   ar
    12    10    11   ar
    13    11    12   ar
    14    12     1    1
    15     1     2   am
    16     2     3    2
    17     2    19    1
    18    19    20   ar
    19    20    21   ar
    20    21    22   ar
    21    22    25    1
    22    25    26    1
    23    26    27    1
    24    27    28   ar
    25    28    29   ar
    26    29    30   ar
    27    30    31   ar
    28    31    32   ar
    29    22    23   ar
    30    23    24   ar
    31    12     6   ar
    32    24    19   ar
    33    18    13   ar
    34    32    27   ar
    35     1     4    1
@<TRIPOS>MOLECULE
*****
 32 35 0 0 0
SMALL
GASTEIGER

@<TRIPOS>ATOM
      1 N         141.0042  139.0087  159.6306 N.am    1  UNL1       -0.2806
      2 C         141.4472  138.5738  160.9961 C.2     1  UNL1        0.2495
      3 O         142.7937  137.9391  161.1809 O.2     1  UNL1       -0.2698
      4 H         140.1204  139.4253  159.5093 H       1  UNL1        0.1552
      5 C         142.6354  141.2994  158.5856 C.3     1  UNL1        0.0323
      6 C         142.7232  139.9544  157.9275 C.ar    1  UNL1       -0.0087
      7 C         143.6266  139.7547  156.7469 C.ar    1  UNL1       -0.0072
      8 C         143.7145  138.4096  156.0887 C.ar    1  UNL1       -0.0206
      9 C         144.6180  138.2100  154.9080 C.3     1  UNL1        0.0311
     10 C         142.8989  137.2643  156.6112 C.ar    1  UNL1        0.0164
     11 C         141.9955  137.4640  157.7918 C.ar    1  UNL1        0.0156
     12 C         141.9076  138.8091  158.4499 C.ar    1  UNL1        0.0465
     13 C         142.9868  135.9193  155.9530 C.ar    1  UNL1        0.0999
     14 C         143.7048  134.7184  156.4936 C.ar    1  UNL1        0.0965
     15 N         143.5338  133.5959  155.5134 N.ar    1  UNL1       -0.3059
     16 C         144.0890  132.2096  155.6549 C.3     1  UNL1        0.1321
     17 C         142.7101  134.1030  154.3670 C.ar    1  UNL1        0.1786
     18 N         142.3720  135.5390  154.6387 N.ar    1  UNL1       -0.2239
     19 C         140.5437  138.7734  162.1767 C.ar    1  UNL1        0.0539
     20 C         140.0676  137.5897  162.9655 C.ar    1  UNL1        0.0076
     21 C         139.1642  137.7893  164.1461 C.ar    1  UNL1        0.0371
     22 C         138.7368  139.1727  164.5380 C.ar    1  UNL1        0.1391
     23 C         139.2129  140.3564  163.7492 C.ar    1  UNL1        0.0371
     24 C         140.1163  140.1568  162.5686 C.ar    1  UNL1        0.0076
     25 O         137.8333  139.3723  165.7187 O.3     1  UNL1       -0.4690
     26 C         138.2863  138.9599  167.0879 C.3     1  UNL1        0.2508
     27 C         139.0977  139.9033  167.9253 C.ar    1  UNL1        0.1026
     28 C         139.9638  140.9357  167.2664 C.ar    1  UNL1        0.0185
     29 C         140.7753  141.8792  168.1038 C.ar    1  UNL1        0.0029
     30 C         140.7207  141.7903  169.6002 C.ar    1  UNL1        0.0207
     31 C         139.8546  140.7580  170.2591 C.ar    1  UNL1        0.0986
     32 N         139.0431  139.8145  169.4216 N.ar    1  UNL1       -0.2445
@<TRIPOS>BOND
     1     5     6    1
     2     6     7   ar
     3     7     8   ar
     4     8     9    1
     5     8    10   ar
     6    10    13    1
     7    13    14   ar
     8    14    15   ar
     9    15    16    1
    10    15    17   ar
    11    17    18   ar
    12    10    11   ar
    13    11    12   ar
    14    12     1    1
    15     1     2   am
    16     2     3    2
    17     2    19    1
    18    19    20   ar
    19    20    21   ar
    20    21    22   ar
    21    22    25    1
    22    25    26    1
    23    26    27    1
    24    27    28   ar
    25    28    29   ar
    26    29    30   ar
    27    30    31   ar
    28    31    32   ar
    29    22    23   ar
    30    23    24   ar
    31    12     6   ar
    32    24    19   ar
    33    18    13   ar
    34    32    27   ar
    35     1     4    1
@<TRIPOS>MOLECULE
*****
 32 35 0 0 0
SMALL
GASTEIGER

@<TRIPOS>ATOM
      1 N         141.7914  138.7726  157.5179 N.am    1  UNL1       -0.2806
      2 C         142.9449  139.7051  157.7410 C.2     1  UNL1        0.2495
      3 O         144.2142  139.5279  156.9615 O.2     1  UNL1       -0.2698
      4 H         140.9584  138.8890  158.0295 H       1  UNL1        0.1552
      5 C         141.2112  139.3006  154.6223 C.3     1  UNL1        0.0323
      6 C         141.6170  137.9269  155.0675 C.ar    1  UNL1       -0.0087
      7 C         141.7327  136.8171  154.0650 C.ar    1  UNL1       -0.0072
      8 C         142.1385  135.4434  154.5103 C.ar    1  UNL1       -0.0206
      9 C         142.2542  134.3337  153.5077 C.3     1  UNL1        0.0311
     10 C         142.4286  135.1795  155.9581 C.ar    1  UNL1        0.0164
     11 C         142.3129  136.2892  156.9606 C.ar    1  UNL1        0.0156
     12 C         141.9071  137.6629  156.5153 C.ar    1  UNL1        0.0465
     13 C         142.8344  133.8058  156.4033 C.ar    1  UNL1        0.0999
     14 C         144.1341  133.4385  157.0560 C.ar    1  UNL1        0.0965
     15 N         144.1147  131.9639  157.3302 N.ar    1  UNL1       -0.3059
     16 C         145.2140  131.1724  157.9745 C.3     1  UNL1        0.1321
     17 C         142.8031  131.4197  156.8469 C.ar    1  UNL1        0.1786
     18 N         142.0118  132.5581  156.2741 N.ar    1  UNL1       -0.2239
     19 C         142.8293  140.8149  158.7436 C.ar    1  UNL1        0.0539
     20 C         142.1523  140.5692  160.0595 C.ar    1  UNL1        0.0076
     21 C         142.0366  141.6789  161.0620 C.ar    1  UNL1        0.0371
     22 C         142.5978  143.0342  160.7488 C.ar    1  UNL1        0.1391
     23 C         143.2748  143.2798  159.4329 C.ar    1  UNL1        0.0371
     24 C         143.3905  142.1702  158.4303 C.ar    1  UNL1        0.0076
     25 O         142.4821  144.1439  161.7514 O.3     1  UNL1       -0.4690
     26 C         141.2647  145.0202  161.7631 C.3     1  UNL1        0.2508
     27 C         140.1116  144.6900  162.6638 C.ar    1  UNL1        0.1026
     28 C         140.2558  144.8334  164.1499 C.ar    1  UNL1        0.0185
     29 C         139.1027  144.5032  165.0506 C.ar    1  UNL1        0.0029
     30 C         137.8054  144.0296  164.4652 C.ar    1  UNL1        0.0207
     31 C         137.6612  143.8862  162.9790 C.ar    1  UNL1        0.0986
     32 N         138.8144  144.2164  162.0783 N.ar    1  UNL1       -0.2445
@<TRIPOS>BOND
     1     5     6    1
     2     6     7   ar
     3     7     8   ar
     4     8     9    1
     5     8    10   ar
     6    10    13    1
     7    13    14   ar
     8    14    15   ar
     9    15    16    1
    10    15    17   ar
    11    17    18   ar
    12    10    11   ar
    13    11    12   ar
    14    12     1    1
    15     1     2   am
    16     2     3    2
    17     2    19    1
    18    19    20   ar
    19    20    21   ar
    20    21    22   ar
    21    22    25    1
    22    25    26    1
    23    26    27    1
    24    27    28   ar
    25    28    29   ar
    26    29    30   ar
    27    30    31   ar
    28    31    32   ar
    29    22    23   ar
    30    23    24   ar
    31    12     6   ar
    32    24    19   ar
    33    18    13   ar
    34    32    27   ar
    35     1     4    1
