@<TRIPOS>MOLECULE
*****
 33 38 0 0 0
SMALL
GASTEIGER

@<TRIPOS>ATOM
      1 C         142.5908  137.9388  157.4223 C.ar    1  UNL1        0.1028
      2 C         142.7698  138.5940  156.0850 C.ar    1  UNL1        0.0131
      3 C         142.4471  140.0487  155.9132 C.ar    1  UNL1       -0.0015
      4 C         141.9262  141.1278  156.8789 C.ar    1  UNL1        0.0035
      5 C         142.1055  139.7771  157.5061 C.ar    1  UNL1        0.0358
      6 C         142.0890  138.7383  158.5880 C.ar    1  UNL1        0.1545
      7 O         141.8792  138.1697  159.9601 O.3     1  UNL1       -0.4528
      8 C         141.5080  138.1577  161.4134 C.ar    1  UNL1        0.1450
      9 C         141.3473  137.1497  163.0253 C.ar    1  UNL1        0.0372
     10 C         140.9193  137.4017  164.4407 C.ar    1  UNL1       -0.0014
     11 C         140.4672  138.7707  164.8550 C.ar    1  UNL1       -0.0243
     12 C         140.5236  139.7261  163.7000 C.ar    1  UNL1       -0.0052
     13 C         141.0320  138.7043  162.7267 C.ar    1  UNL1        0.0345
     14 C         140.0602  141.0677  164.1852 C.3     1  UNL1        0.0980
     15 C         139.7175  140.9415  165.6400 C.3     1  UNL1        0.0290
     16 C         139.9690  139.5218  166.0540 C.3     1  UNL1        0.0281
     17 N         139.7124  142.5248  164.1084 N.am    1  UNL1       -0.2763
     18 C         139.2095  143.6617  164.9477 C.3     1  UNL1        0.0956
     19 C         139.1265  144.8799  164.0765 C.3     1  UNL1        0.0466
     20 C         139.5496  144.9144  162.3993 C.3     1  UNL1        0.1337
     21 N         139.7595  145.4830  161.0271 N.3     1  UNL1       -0.2863
     22 C         140.1306  145.4950  159.5738 C.3     1  UNL1        0.1151
     23 C         140.6066  144.9484  158.2605 C.ar    1  UNL1        0.0739
     24 C         140.4652  146.2522  157.5323 C.ar    1  UNL1        0.1147
     25 N         140.8862  146.0360  156.1090 N.ar    1  UNL1       -0.2226
     26 C         141.2878  144.5987  155.9575 C.ar    1  UNL1        0.1786
     27 N         141.1150  143.9266  157.2873 N.ar    1  UNL1       -0.3070
     28 C         141.5784  142.5849  156.8021 C.3     1  UNL1        0.1341
     29 C         139.5331  143.8756  163.4812 C.2     1  UNL1        0.2401
     30 O         139.2850  144.1313  164.1943 O.2     1  UNL1       -0.2734
     31 H         140.3806  146.2408  161.3106 H       1  UNL1        0.1240
     32 N         143.2364  135.0293  157.7658 N.1     1  UNL1       -0.1907
     33 C         142.9136  136.4840  157.5941 C.1     1  UNL1        0.1035
@<TRIPOS>BOND
     1    32    33    3
     2    33     1    1
     3     1     2   ar
     4     2     3   ar
     5     3     4   ar
     6     4     5   ar
     7     5     6   ar
     8     6     7    1
     9     7     8    1
    10     8     9   ar
    11     9    10   ar
    12    10    11   ar
    13    11    12   ar
    14    12    13   ar
    15    12    14    1
    16    14    15    1
    17    15    16    1
    18    14    17    1
    19    17    18    1
    20    18    19    1
    21    20    19    1
    22    20    21    1
    23    21    22    1
    24    22    23    1
    25    23    24   ar
    26    24    25   ar
    27    25    26   ar
    28    26    27   ar
    29    27    28    1
    30    20    29    1
    31    29    30    2
    32     6     1   ar
    33    13     8   ar
    34    29    17   am
    35    28     4    1
    36    16    11    1
    37    27    23   ar
    38    21    31    1
@<TRIPOS>MOLECULE
*****
 33 38 0 0 0
SMALL
GASTEIGER

@<TRIPOS>ATOM
      1 C         140.2175  144.6348  156.7626 C.ar    1  UNL1        0.1028
      2 C         140.5594  144.0055  155.4447 C.ar    1  UNL1        0.0131
      3 C         141.0678  142.5951  155.3964 C.ar    1  UNL1       -0.0015
      4 C         141.3470  141.5438  156.4851 C.ar    1  UNL1        0.0035
      5 C         140.8330  142.8512  157.0110 C.ar    1  UNL1        0.0358
      6 C         140.3840  143.8538  158.0323 C.ar    1  UNL1        0.1545
      7 O         140.0683  144.3990  159.3936 O.3     1  UNL1       -0.4528
      8 C         139.9340  144.4038  160.8876 C.ar    1  UNL1        0.1450
      9 C         139.4480  145.3741  162.4568 C.ar    1  UNL1        0.0372
     10 C         139.4065  145.1230  163.9351 C.ar    1  UNL1       -0.0014
     11 C         139.8334  143.7931  164.4821 C.ar    1  UNL1       -0.0243
     12 C         140.2606  142.8717  163.3783 C.ar    1  UNL1       -0.0052
     13 C         140.0016  143.8675  162.2868 C.ar    1  UNL1        0.0345
     14 C         140.6718  141.5680  163.9958 C.3     1  UNL1        0.0980
     15 C         140.4987  141.6837  165.4812 C.3     1  UNL1        0.0290
     16 C         139.9805  143.0589  165.7818 C.3     1  UNL1        0.0281
     17 N         141.1725  140.1549  164.0453 N.am    1  UNL1       -0.2763
     18 C         141.4826  139.0481  165.0091 C.3     1  UNL1        0.0956
     19 C         141.9735  137.8705  164.2204 C.3     1  UNL1        0.0466
     20 C         142.1355  137.8449  162.4980 C.3     1  UNL1        0.1337
     21 N         142.4512  137.2997  161.1367 N.3     1  UNL1       -0.2863
     22 C         142.5855  137.2949  159.6428 C.3     1  UNL1        0.1151
     23 C         142.5179  137.8312  158.2435 C.ar    1  UNL1        0.0739
     24 C         143.0250  136.5699  157.6095 C.ar    1  UNL1        0.1147
     25 N         143.0793  136.7863  156.1262 N.ar    1  UNL1       -0.2226
     26 C         142.6058  138.1812  155.8435 C.ar    1  UNL1        0.1786
     27 N         142.2588  138.8270  157.1521 N.ar    1  UNL1       -0.3070
     28 C         141.8476  140.1307  156.5346 C.3     1  UNL1        0.1341
     29 C         141.6865  138.8475  163.5194 C.2     1  UNL1        0.2401
     30 O         141.7093  138.5962  164.2756 O.2     1  UNL1       -0.2734
     31 H         141.8522  136.4766  161.2009 H       1  UNL1        0.1240
     32 N         139.2008  147.4556  156.8592 N.1     1  UNL1       -0.1907
     33 C         139.7091  146.0453  156.8109 C.1     1  UNL1        0.1035
@<TRIPOS>BOND
     1    32    33    3
     2    33     1    1
     3     1     2   ar
     4     2     3   ar
     5     3     4   ar
     6     4     5   ar
     7     5     6   ar
     8     6     7    1
     9     7     8    1
    10     8     9   ar
    11     9    10   ar
    12    10    11   ar
    13    11    12   ar
    14    12    13   ar
    15    12    14    1
    16    14    15    1
    17    15    16    1
    18    14    17    1
    19    17    18    1
    20    18    19    1
    21    20    19    1
    22    20    21    1
    23    21    22    1
    24    22    23    1
    25    23    24   ar
    26    24    25   ar
    27    25    26   ar
    28    26    27   ar
    29    27    28    1
    30    20    29    1
    31    29    30    2
    32     6     1   ar
    33    13     8   ar
    34    29    17   am
    35    28     4    1
    36    16    11    1
    37    27    23   ar
    38    21    31    1
@<TRIPOS>MOLECULE
*****
 33 38 0 0 0
SMALL
GASTEIGER

@<TRIPOS>ATOM
      1 C         139.7516  145.8381  156.1539 C.ar    1  UNL1        0.1028
      2 C         139.7866  145.3833  154.7250 C.ar    1  UNL1        0.0131
      3 C         140.3131  144.0207  154.3841 C.ar    1  UNL1       -0.0015
      4 C         140.8791  142.8722  155.2379 C.ar    1  UNL1        0.0035
      5 C         140.4653  144.0783  156.0277 C.ar    1  UNL1        0.0358
      6 C         140.2431  144.9303  157.2421 C.ar    1  UNL1        0.1545
      7 O         140.2467  145.2983  158.6962 O.3     1  UNL1       -0.4528
      8 C         140.4753  145.1264  160.1688 C.ar    1  UNL1        0.1450
      9 C         140.3500  145.8822  161.9161 C.ar    1  UNL1        0.0372
     10 C         140.6731  145.4639  163.3198 C.ar    1  UNL1       -0.0014
     11 C         141.2610  144.1091  163.5821 C.ar    1  UNL1       -0.0243
     12 C         141.4396  143.3456  162.3034 C.ar    1  UNL1       -0.0052
     13 C         140.8942  144.4407  161.4353 C.ar    1  UNL1        0.0345
     14 C         142.0285  142.0079  162.6405 C.3     1  UNL1        0.0980
     15 C         142.2139  141.9445  164.1276 C.3     1  UNL1        0.0290
     16 C         141.7395  143.2431  164.7096 C.3     1  UNL1        0.0281
     17 N         142.5712  140.6311  162.3955 N.am    1  UNL1       -0.2763
     18 C         143.1389  139.4435  163.1147 C.3     1  UNL1        0.0956
     19 C         143.4631  138.3943  162.0929 C.3     1  UNL1        0.0466
     20 C         143.2072  138.5730  160.3912 C.3     1  UNL1        0.1337
     21 N         143.2036  138.2049  158.9371 N.3     1  UNL1       -0.2863
     22 C         142.9750  138.3769  157.4646 C.3     1  UNL1        0.1151
     23 C         142.5561  139.0625  156.1979 C.ar    1  UNL1        0.0739
     24 C         142.9359  137.9139  155.3112 C.ar    1  UNL1        0.1147
     25 N         142.6251  138.2991  153.8952 N.ar    1  UNL1       -0.2226
     26 C         142.0534  139.6858  153.9068 C.ar    1  UNL1        0.1786
     27 N         142.0107  140.1576  155.3300 N.ar    1  UNL1       -0.3070
     28 C         141.4218  141.4954  154.9928 C.3     1  UNL1        0.1341
     29 C         142.9851  139.4249  161.6057 C.2     1  UNL1        0.2401
     30 O         143.1969  139.0917  162.2982 O.2     1  UNL1       -0.2734
     31 H         142.6641  137.3451  159.0375 H       1  UNL1        0.1240
     32 N         138.6985  148.5632  156.8355 N.1     1  UNL1       -0.1907
     33 C         139.2250  147.2006  156.4947 C.1     1  UNL1        0.1035
@<TRIPOS>BOND
     1    32    33    3
     2    33     1    1
     3     1     2   ar
     4     2     3   ar
     5     3     4   ar
     6     4     5   ar
     7     5     6   ar
     8     6     7    1
     9     7     8    1
    10     8     9   ar
    11     9    10   ar
    12    10    11   ar
    13    11    12   ar
    14    12    13   ar
    15    12    14    1
    16    14    15    1
    17    15    16    1
    18    14    17    1
    19    17    18    1
    20    18    19    1
    21    20    19    1
    22    20    21    1
    23    21    22    1
    24    22    23    1
    25    23    24   ar
    26    24    25   ar
    27    25    26   ar
    28    26    27   ar
    29    27    28    1
    30    20    29    1
    31    29    30    2
    32     6     1   ar
    33    13     8   ar
    34    29    17   am
    35    28     4    1
    36    16    11    1
    37    27    23   ar
    38    21    31    1
@<TRIPOS>MOLECULE
*****
 33 38 0 0 0
SMALL
GASTEIGER

@<TRIPOS>ATOM
      1 C         143.1333  138.7865  155.5311 C.ar    1  UNL1        0.1028
      2 C         142.7319  139.3514  154.2009 C.ar    1  UNL1        0.0131
      3 C         142.0752  140.6979  154.1252 C.ar    1  UNL1       -0.0015
      4 C         141.6799  141.7327  155.1935 C.ar    1  UNL1        0.0035
      5 C         142.3288  140.4979  155.7449 C.ar    1  UNL1        0.0358
      6 C         142.8782  139.5679  156.7858 C.ar    1  UNL1        0.1545
      7 O         143.2444  139.0846  158.1577 O.3     1  UNL1       -0.4528
      8 C         143.3716  139.1213  159.6519 C.ar    1  UNL1        0.1450
      9 C         143.9519  138.2374  161.2400 C.ar    1  UNL1        0.0372
     10 C         143.9594  138.5183  162.7134 C.ar    1  UNL1       -0.0014
     11 C         143.3898  139.8044  163.2346 C.ar    1  UNL1       -0.0243
     12 C         142.8711  140.6544  162.1129 C.ar    1  UNL1       -0.0052
     13 C         143.2405  139.6725  161.0407 C.ar    1  UNL1        0.0345
     14 C         142.3195  141.9174  162.7051 C.3     1  UNL1        0.0980
     15 C         142.4973  141.8479  164.1929 C.3     1  UNL1        0.0290
     16 C         143.1588  140.5420  164.5202 C.3     1  UNL1        0.0281
     17 N         141.6698  143.2692  162.7272 N.am    1  UNL1       -0.2763
     18 C         141.2383  144.3535  163.6695 C.3     1  UNL1        0.0956
     19 C         140.6274  145.4571  162.8579 C.3     1  UNL1        0.0466
     20 C         140.4715  145.4339  161.1349 C.3     1  UNL1        0.1337
     21 N         140.1053  145.9173  159.7630 N.3     1  UNL1       -0.2863
     22 C         139.9781  145.8806  158.2688 C.3     1  UNL1        0.1151
     23 C         140.1091  145.3294  156.8799 C.ar    1  UNL1        0.0739
     24 C         139.4725  146.5172  156.2213 C.ar    1  UNL1        0.1147
     25 N         139.4485  146.2694  154.7421 N.ar    1  UNL1       -0.2226
     26 C         140.0703  144.9285  154.4865 C.ar    1  UNL1        0.1786
     27 N         140.4786  144.3475  155.8078 N.ar    1  UNL1       -0.3070
     28 C         141.0302  143.0845  155.2156 C.3     1  UNL1        0.1341
     29 C         141.0208  144.5040  162.1759 C.2     1  UNL1        0.2401
     30 O         140.9678  144.7651  162.9272 O.2     1  UNL1       -0.2734
     31 H         140.6122  146.8010  159.8134 H       1  UNL1        0.1240
     32 N         144.4466  136.0934  155.6826 N.1     1  UNL1       -0.1907
     33 C         143.7900  137.4399  155.6068 C.1     1  UNL1        0.1035
@<TRIPOS>BOND
     1    32    33    3
     2    33     1    1
     3     1     2   ar
     4     2     3   ar
     5     3     4   ar
     6     4     5   ar
     7     5     6   ar
     8     6     7    1
     9     7     8    1
    10     8     9   ar
    11     9    10   ar
    12    10    11   ar
    13    11    12   ar
    14    12    13   ar
    15    12    14    1
    16    14    15    1
    17    15    16    1
    18    14    17    1
    19    17    18    1
    20    18    19    1
    21    20    19    1
    22    20    21    1
    23    21    22    1
    24    22    23    1
    25    23    24   ar
    26    24    25   ar
    27    25    26   ar
    28    26    27   ar
    29    27    28    1
    30    20    29    1
    31    29    30    2
    32     6     1   ar
    33    13     8   ar
    34    29    17   am
    35    28     4    1
    36    16    11    1
    37    27    23   ar
    38    21    31    1
@<TRIPOS>MOLECULE
*****
 33 38 0 0 0
SMALL
GASTEIGER

@<TRIPOS>ATOM
      1 C         145.3092  142.3884  157.1181 C.ar    1  UNL1        0.1028
      2 C         144.7604  142.3879  155.7221 C.ar    1  UNL1        0.0131
      3 C         143.3032  142.1185  155.4891 C.ar    1  UNL1       -0.0015
      4 C         142.1292  141.8139  156.4364 C.ar    1  UNL1        0.0035
      5 C         143.4422  142.0191  157.1319 C.ar    1  UNL1        0.0358
      6 C         144.4009  142.1195  158.2812 C.ar    1  UNL1        0.1545
      7 O         144.8592  142.0997  159.7092 O.3     1  UNL1       -0.4528
      8 C         144.7474  141.9627  161.1989 C.ar    1  UNL1        0.1450
      9 C         145.6298  142.0062  162.8899 C.ar    1  UNL1        0.0372
     10 C         145.2541  141.8210  164.3302 C.ar    1  UNL1       -0.0014
     11 C         143.8338  141.5122  164.7011 C.ar    1  UNL1       -0.0243
     12 C         142.9657  141.4352  163.4803 C.ar    1  UNL1       -0.0052
     13 C         144.0825  141.7294  162.5230 C.ar    1  UNL1        0.0345
     14 C         141.5671  141.1251  163.9248 C.3     1  UNL1        0.0980
     15 C         141.5708  141.0104  165.4204 C.3     1  UNL1        0.0290
     16 C         142.9717  141.2496  165.9002 C.3     1  UNL1        0.0281
     17 N         140.0995  140.8461  163.7890 N.am    1  UNL1       -0.2763
     18 C         138.8778  140.5422  164.6045 C.3     1  UNL1        0.0956
     19 C         137.7197  140.3864  163.6640 C.3     1  UNL1        0.0466
     20 C         137.8278  140.5405  161.9442 C.3     1  UNL1        0.1337
     21 N         137.3695  140.5603  160.5160 N.3     1  UNL1       -0.2863
     22 C         137.4813  140.6973  159.0265 C.3     1  UNL1        0.1151
     23 C         138.1462  140.9306  157.7023 C.ar    1  UNL1        0.0739
     24 C         136.8893  140.7443  156.9051 C.ar    1  UNL1        0.1147
     25 N         137.2294  140.9232  155.4551 N.ar    1  UNL1       -0.2226
     26 C         138.6963  141.2202  155.3562 C.ar    1  UNL1        0.1786
     27 N         139.2630  141.2248  156.7451 N.ar    1  UNL1       -0.3070
     28 C         140.6616  141.5349  156.3005 C.3     1  UNL1        0.1341
     29 C         138.7864  140.6408  163.0935 C.2     1  UNL1        0.2401
     30 O         138.4670  140.5222  163.8141 O.2     1  UNL1       -0.2734
     31 H         136.6351  141.2571  160.6407 H       1  UNL1        0.1240
     32 N         148.2234  142.9272  157.5841 N.1     1  UNL1       -0.1907
     33 C         146.7663  142.6578  157.3511 C.1     1  UNL1        0.1035
@<TRIPOS>BOND
     1    32    33    3
     2    33     1    1
     3     1     2   ar
     4     2     3   ar
     5     3     4   ar
     6     4     5   ar
     7     5     6   ar
     8     6     7    1
     9     7     8    1
    10     8     9   ar
    11     9    10   ar
    12    10    11   ar
    13    11    12   ar
    14    12    13   ar
    15    12    14    1
    16    14    15    1
    17    15    16    1
    18    14    17    1
    19    17    18    1
    20    18    19    1
    21    20    19    1
    22    20    21    1
    23    21    22    1
    24    22    23    1
    25    23    24   ar
    26    24    25   ar
    27    25    26   ar
    28    26    27   ar
    29    27    28    1
    30    20    29    1
    31    29    30    2
    32     6     1   ar
    33    13     8   ar
    34    29    17   am
    35    28     4    1
    36    16    11    1
    37    27    23   ar
    38    21    31    1
@<TRIPOS>MOLECULE
*****
 33 38 0 0 0
SMALL
GASTEIGER

@<TRIPOS>ATOM
      1 C         135.4263  140.8265  156.3004 C.ar    1  UNL1        0.1028
      2 C         135.3214  141.5155  154.9723 C.ar    1  UNL1        0.0131
      3 C         136.4879  142.2905  154.4350 C.ar    1  UNL1       -0.0015
      4 C         137.9001  142.5704  154.9789 C.ar    1  UNL1        0.0035
      5 C         137.0510  141.7246  155.8809 C.ar    1  UNL1        0.0358
      6 C         136.6978  140.9123  157.0915 C.ar    1  UNL1        0.1545
      7 O         136.8947  140.2573  158.4264 O.3     1  UNL1       -0.4528
      8 C         137.6114  139.8590  159.6825 C.ar    1  UNL1        0.1450
      9 C         137.5500  138.9192  161.3418 C.ar    1  UNL1        0.0372
     10 C         138.4751  138.6634  162.4945 C.ar    1  UNL1       -0.0014
     11 C         139.8609  139.2373  162.4855 C.ar    1  UNL1       -0.0243
     12 C         140.1057  140.0275  161.2343 C.ar    1  UNL1       -0.0052
     13 C         138.7390  139.7784  160.6684 C.ar    1  UNL1        0.0345
     14 C         141.5035  140.5685  161.2937 C.3     1  UNL1        0.0980
     15 C         142.1226  140.1127  162.5816 C.3     1  UNL1        0.0290
     16 C         141.1075  139.2899  163.3182 C.3     1  UNL1        0.0281
     17 N         142.7195  141.3191  160.8377 N.am    1  UNL1       -0.2763
     18 C         144.1183  141.6620  161.2572 C.3     1  UNL1        0.0956
     19 C         144.7312  142.5072  160.1802 C.3     1  UNL1        0.0466
     20 C         143.9218  142.9771  158.7251 C.3     1  UNL1        0.1337
     21 N         143.7250  143.6322  157.3901 N.3     1  UNL1       -0.2863
     22 C         143.0082  144.0304  156.1341 C.3     1  UNL1        0.1151
     23 C         141.8807  144.1111  155.1481 C.ar    1  UNL1        0.0739
     24 C         142.6388  144.9606  154.1716 C.ar    1  UNL1        0.1147
     25 N         141.7406  145.2365  153.0023 N.ar    1  UNL1       -0.2226
     26 C         140.4274  144.5575  153.2562 C.ar    1  UNL1        0.1786
     27 N         140.5139  143.8619  154.5823 N.ar    1  UNL1       -0.3070
     28 C         139.1162  143.3209  154.5229 C.3     1  UNL1        0.1341
     29 C         143.5688  142.1649  159.9357 C.2     1  UNL1        0.2401
     30 O         144.1456  142.1005  160.4821 O.2     1  UNL1       -0.2734
     31 H         144.5298  143.2044  156.9324 H       1  UNL1        0.1240
     32 N         133.0933  139.2765  157.3748 N.1     1  UNL1       -0.1907
     33 C         134.2598  140.0515  156.8376 C.1     1  UNL1        0.1035
@<TRIPOS>BOND
     1    32    33    3
     2    33     1    1
     3     1     2   ar
     4     2     3   ar
     5     3     4   ar
     6     4     5   ar
     7     5     6   ar
     8     6     7    1
     9     7     8    1
    10     8     9   ar
    11     9    10   ar
    12    10    11   ar
    13    11    12   ar
    14    12    13   ar
    15    12    14    1
    16    14    15    1
    17    15    16    1
    18    14    17    1
    19    17    18    1
    20    18    19    1
    21    20    19    1
    22    20    21    1
    23    21    22    1
    24    22    23    1
    25    23    24   ar
    26    24    25   ar
    27    25    26   ar
    28    26    27   ar
    29    27    28    1
    30    20    29    1
    31    29    30    2
    32     6     1   ar
    33    13     8   ar
    34    29    17   am
    35    28     4    1
    36    16    11    1
    37    27    23   ar
    38    21    31    1
@<TRIPOS>MOLECULE
*****
 33 38 0 0 0
SMALL
GASTEIGER

@<TRIPOS>ATOM
      1 C         138.0033  141.0118  156.5586 C.ar    1  UNL1        0.1028
      2 C         138.6611  141.1067  155.2139 C.ar    1  UNL1        0.0131
      3 C         140.1322  141.3829  155.1163 C.ar    1  UNL1       -0.0015
      4 C         141.2276  141.6134  156.1725 C.ar    1  UNL1        0.0035
      5 C         139.8635  141.3679  156.7458 C.ar    1  UNL1        0.0358
      6 C         138.8166  141.1931  157.8058 C.ar    1  UNL1        0.1545
      7 O         138.2466  141.1157  159.1911 O.3     1  UNL1       -0.4528
      8 C         138.2400  141.1474  160.6908 C.ar    1  UNL1        0.1450
      9 C         137.2263  140.9910  162.2996 C.ar    1  UNL1        0.0372
     10 C         137.4867  141.0727  163.7745 C.ar    1  UNL1       -0.0014
     11 C         138.8732  141.3461  164.2772 C.ar    1  UNL1       -0.0243
     12 C         139.8354  141.5032  163.1373 C.ar    1  UNL1       -0.0052
     13 C         138.7979  141.2835  162.0764 C.ar    1  UNL1        0.0345
     14 C         141.1946  141.7730  163.7117 C.3     1  UNL1        0.0980
     15 C         141.0724  141.7827  165.2067 C.3     1  UNL1        0.0290
     16 C         139.6377  141.5189  165.5563 C.3     1  UNL1        0.0281
     17 N         142.6684  142.0519  163.7123 N.am    1  UNL1       -0.2763
     18 C         143.8218  142.2906  164.6411 C.3     1  UNL1        0.0956
     19 C         145.0509  142.5048  163.8085 C.3     1  UNL1        0.0466
     20 C         145.0794  142.4722  162.0789 C.3     1  UNL1        0.1337
     21 N         145.6495  142.5496  160.6936 N.3     1  UNL1       -0.2863
     22 C         145.6561  142.5179  159.1939 C.3     1  UNL1        0.1151
     23 C         145.0982  142.3818  157.8082 C.ar    1  UNL1        0.0739
     24 C         146.4144  142.6159  157.1279 C.ar    1  UNL1        0.1147
     25 N         146.1903  142.5409  155.6466 N.ar    1  UNL1       -0.2226
     26 C         144.7356  142.2605  155.4115 C.ar    1  UNL1        0.1786
     27 N         144.0606  142.1622  156.7474 N.ar    1  UNL1       -0.3070
     28 C         142.7015  141.8923  156.1730 C.3     1  UNL1        0.1341
     29 C         144.0326  142.2974  163.1389 C.2     1  UNL1        0.2401
     30 O         144.2940  142.3634  163.8891 O.2     1  UNL1       -0.2734
     31 H         146.3713  141.8413  160.8266 H       1  UNL1        0.1240
     32 N         135.0611  140.4594  156.7538 N.1     1  UNL1       -0.1907
     33 C         136.5322  140.7356  156.6562 C.1     1  UNL1        0.1035
@<TRIPOS>BOND
     1    32    33    3
     2    33     1    1
     3     1     2   ar
     4     2     3   ar
     5     3     4   ar
     6     4     5   ar
     7     5     6   ar
     8     6     7    1
     9     7     8    1
    10     8     9   ar
    11     9    10   ar
    12    10    11   ar
    13    11    12   ar
    14    12    13   ar
    15    12    14    1
    16    14    15    1
    17    15    16    1
    18    14    17    1
    19    17    18    1
    20    18    19    1
    21    20    19    1
    22    20    21    1
    23    21    22    1
    24    22    23    1
    25    23    24   ar
    26    24    25   ar
    27    25    26   ar
    28    26    27   ar
    29    27    28    1
    30    20    29    1
    31    29    30    2
    32     6     1   ar
    33    13     8   ar
    34    29    17   am
    35    28     4    1
    36    16    11    1
    37    27    23   ar
    38    21    31    1
@<TRIPOS>MOLECULE
*****
 33 38 0 0 0
SMALL
GASTEIGER

@<TRIPOS>ATOM
      1 C         143.6869  141.9195  160.8242 C.ar    1  UNL1        0.1028
      2 C         144.3256  140.6094  161.1785 C.ar    1  UNL1        0.0131
      3 C         144.0391  139.3885  160.3556 C.ar    1  UNL1       -0.0015
      4 C         143.1607  139.1424  159.1162 C.ar    1  UNL1        0.0035
      5 C         143.1416  140.5581  159.6112 C.ar    1  UNL1        0.0358
      6 C         142.7617  142.0088  159.6469 C.ar    1  UNL1        0.1545
      7 O         142.0787  143.2734  159.2178 O.3     1  UNL1       -0.4528
      8 C         141.1964  144.1595  158.3892 C.ar    1  UNL1        0.1450
      9 C         140.4853  145.9062  158.1004 C.ar    1  UNL1        0.0372
     10 C         139.5552  146.5666  157.1264 C.ar    1  UNL1       -0.0014
     11 C         138.9348  145.7651  156.0206 C.ar    1  UNL1       -0.0243
     12 C         139.3816  144.3345  156.0797 C.ar    1  UNL1       -0.0052
     13 C         140.2493  144.5320  157.2873 C.ar    1  UNL1        0.0345
     14 C         138.7253  143.5968  154.9505 C.3     1  UNL1        0.0980
     15 C         137.8729  144.5716  154.1934 C.3     1  UNL1        0.0290
     16 C         138.0023  145.9117  154.8548 C.3     1  UNL1        0.0281
     17 N         138.3804  142.4313  154.0714 N.am    1  UNL1       -0.2763
     18 C         137.5634  142.0646  152.8681 C.3     1  UNL1        0.0956
     19 C         137.7668  140.6033  152.5976 C.3     1  UNL1        0.0466
     20 C         138.7794  139.5649  153.5407 C.3     1  UNL1        0.1337
     21 N         139.4625  138.3002  153.9699 N.3     1  UNL1       -0.2863
     22 C         140.3447  137.4142  154.7985 C.3     1  UNL1        0.1151
     23 C         141.2918  137.0416  155.9004 C.ar    1  UNL1        0.0739
     24 C         141.3850  135.6009  155.4933 C.ar    1  UNL1        0.1147
     25 N         142.3103  134.9081  156.4492 N.ar    1  UNL1       -0.2226
     26 C         142.7890  135.9206  157.4471 C.ar    1  UNL1        0.1786
     27 N         142.1595  137.2392  157.1079 N.ar    1  UNL1       -0.3070
     28 C         142.8158  137.9769  158.2371 C.3     1  UNL1        0.1341
     29 C         138.3994  141.0155  153.5764 C.2     1  UNL1        0.2401
     30 O         137.8962  141.2494  153.0041 O.2     1  UNL1       -0.2734
     31 H         139.9079  138.1006  153.0742 H       1  UNL1        0.1240
     32 N         144.2597  144.3615  162.4700 N.1     1  UNL1       -0.1907
     33 C         143.9733  143.1405  161.6472 C.1     1  UNL1        0.1035
@<TRIPOS>BOND
     1    32    33    3
     2    33     1    1
     3     1     2   ar
     4     2     3   ar
     5     3     4   ar
     6     4     5   ar
     7     5     6   ar
     8     6     7    1
     9     7     8    1
    10     8     9   ar
    11     9    10   ar
    12    10    11   ar
    13    11    12   ar
    14    12    13   ar
    15    12    14    1
    16    14    15    1
    17    15    16    1
    18    14    17    1
    19    17    18    1
    20    18    19    1
    21    20    19    1
    22    20    21    1
    23    21    22    1
    24    22    23    1
    25    23    24   ar
    26    24    25   ar
    27    25    26   ar
    28    26    27   ar
    29    27    28    1
    30    20    29    1
    31    29    30    2
    32     6     1   ar
    33    13     8   ar
    34    29    17   am
    35    28     4    1
    36    16    11    1
    37    27    23   ar
    38    21    31    1
@<TRIPOS>MOLECULE
*****
 33 38 0 0 0
SMALL
GASTEIGER

@<TRIPOS>ATOM
      1 C         140.5748  145.4126  154.9582 C.ar    1  UNL1        0.1028
      2 C         140.1345  146.6108  155.7458 C.ar    1  UNL1        0.0131
      3 C         140.0460  146.5342  157.2412 C.ar    1  UNL1       -0.0015
      4 C         140.3276  145.4080  158.2515 C.ar    1  UNL1        0.0035
      5 C         140.5585  145.0215  156.8207 C.ar    1  UNL1        0.0358
      6 C         140.9266  144.1377  155.6659 C.ar    1  UNL1        0.1545
      7 O         141.3759  142.8911  154.9632 O.3     1  UNL1       -0.4528
      8 C         141.8381  141.4712  154.8194 C.ar    1  UNL1        0.1450
      9 C         142.3739  140.0638  153.6480 C.ar    1  UNL1        0.0372
     10 C         142.8178  138.6367  153.7763 C.ar    1  UNL1       -0.0014
     11 C         142.9175  138.0012  155.1313 C.ar    1  UNL1       -0.0243
     12 C         142.5281  138.9705  156.2078 C.ar    1  UNL1       -0.0052
     13 C         142.2427  140.0946  155.2565 C.ar    1  UNL1        0.0345
     14 C         142.6509  138.2702  157.5287 C.3     1  UNL1        0.0980
     15 C         143.1162  136.8682  157.2685 C.3     1  UNL1        0.0290
     16 C         143.2810  136.7019  155.7869 C.3     1  UNL1        0.0281
     17 N         142.5925  138.1004  159.0179 N.am    1  UNL1       -0.2763
     18 C         142.8327  137.0881  160.0984 C.3     1  UNL1        0.0956
     19 C         142.5273  137.7356  161.4165 C.3     1  UNL1        0.0466
     20 C         141.9935  139.3707  161.6035 C.3     1  UNL1        0.1337
     21 N         141.5442  140.6174  162.3062 N.3     1  UNL1       -0.2863
     22 C         141.0820  142.0372  162.4500 C.3     1  UNL1        0.1151
     23 C         140.6775  143.4139  162.0129 C.ar    1  UNL1        0.0739
     24 C         140.4156  143.9071  163.4051 C.ar    1  UNL1        0.1147
     25 N         139.9683  145.3359  163.3141 N.ar    1  UNL1       -0.2226
     26 C         139.9537  145.7258  161.8657 C.ar    1  UNL1        0.1786
     27 N         140.3920  144.5379  161.0615 N.ar    1  UNL1       -0.3070
     28 C         140.2692  145.2381  159.7407 C.3     1  UNL1        0.1341
     29 C         142.3616  138.4868  160.4488 C.2     1  UNL1        0.2401
     30 O         142.5823  137.7462  160.6443 O.2     1  UNL1       -0.2734
     31 H         142.3487  140.6949  162.9284 H       1  UNL1        0.1240
     32 N         140.7521  145.5657  151.9673 N.1     1  UNL1       -0.1907
     33 C         140.6634  145.4892  153.4627 C.1     1  UNL1        0.1035
@<TRIPOS>BOND
     1    32    33    3
     2    33     1    1
     3     1     2   ar
     4     2     3   ar
     5     3     4   ar
     6     4     5   ar
     7     5     6   ar
     8     6     7    1
     9     7     8    1
    10     8     9   ar
    11     9    10   ar
    12    10    11   ar
    13    11    12   ar
    14    12    13   ar
    15    12    14    1
    16    14    15    1
    17    15    16    1
    18    14    17    1
    19    17    18    1
    20    18    19    1
    21    20    19    1
    22    20    21    1
    23    21    22    1
    24    22    23    1
    25    23    24   ar
    26    24    25   ar
    27    25    26   ar
    28    26    27   ar
    29    27    28    1
    30    20    29    1
    31    29    30    2
    32     6     1   ar
    33    13     8   ar
    34    29    17   am
    35    28     4    1
    36    16    11    1
    37    27    23   ar
    38    21    31    1
