@<TRIPOS>MOLECULE
*****
 33 36 0 0 0
SMALL
GASTEIGER

@<TRIPOS>ATOM
      1 C         138.0760  142.5147  164.7264 C.3     1  UNL1        0.0285
      2 C         139.0568  141.6245  164.0223 C.2     1  UNL1       -0.0155
      3 C         139.5796  140.3134  164.5297 C.2     1  UNL1       -0.0059
      4 C         140.5329  139.7679  163.5081 C.2     1  UNL1        0.0895
      5 N         140.5992  140.7420  162.3693 N.2     1  UNL1       -0.2578
      6 C         139.6870  141.8894  162.6871 C.3     1  UNL1        0.1970
      7 C         139.4469  143.0908  161.8216 C.2     1  UNL1        0.2490
      8 O         138.1478  143.2380  161.0864 O.2     1  UNL1       -0.2726
      9 N         140.5061  144.1449  161.6914 N.am    1  UNL1       -0.2977
     10 H         141.3587  144.0483  162.1739 H       1  UNL1        0.1498
     11 C         140.2660  145.3464  160.8259 C.3     1  UNL1        0.1300
     12 C         139.4756  146.5062  161.3552 C.3     1  UNL1        0.0295
     13 C         140.8164  145.3880  159.4311 C.ar    1  UNL1        0.1524
     14 N         142.1741  144.9139  159.0045 N.ar    1  UNL1       -0.2065
     15 C         142.3025  145.1439  157.5279 C.ar    1  UNL1        0.2204
     16 N         141.0241  145.7601  157.0418 N.ar    1  UNL1       -0.1489
     17 N         140.1057  145.9109  158.2181 N.ar    1  UNL1       -0.2602
     18 H         139.1961  146.2871  158.1976 H       1  UNL1        0.1903
     19 C         139.2135  139.6621  165.8304 C.3     1  UNL1        0.0387
     20 C         138.0324  138.8485  165.3909 C.3     1  UNL1        0.0088
     21 C         138.4814  138.8068  166.8216 C.3     1  UNL1        0.0088
     22 C         140.2675  140.2495  166.7215 C.ar    1  UNL1       -0.0183
     23 C         141.6353  139.6357  166.7708 C.ar    1  UNL1       -0.0040
     24 C         142.6893  140.2231  167.6619 C.ar    1  UNL1        0.0042
     25 C         142.3754  141.4243  168.5037 C.ar    1  UNL1        0.0810
     26 C         141.0077  142.0380  168.4545 C.ar    1  UNL1        0.0720
     27 C         139.9537  141.4506  167.5634 C.ar    1  UNL1        0.0063
     28 C         143.4295  142.0117  169.3949 C.3     1  UNL1        0.4192
     29 F         144.4834  142.5990  170.2860 F       1  UNL1       -0.1658
     30 F         143.9513  142.8206  168.2445 F       1  UNL1       -0.1658
     31 F         142.9077  141.2027  170.5452 F       1  UNL1       -0.1658
     32 C         140.6939  143.2392  169.2963 C.1     1  UNL1        0.1004
     33 N         140.3800  144.4404  170.1382 N.1     1  UNL1       -0.1908
@<TRIPOS>BOND
     1     1     2    1
     2     2     3    2
     3     3    19    1
     4    19    22    1
     5    22    23   ar
     6    23    24   ar
     7    24    25   ar
     8    25    28    1
     9    28    29    1
    10    28    30    1
    11    28    31    1
    12    25    26   ar
    13    26    32    1
    14    32    33    3
    15    26    27   ar
    16    19    20    1
    17    20    21    1
    18     3     4    1
    19     4     5    2
    20     5     6    1
    21     6     7    1
    22     7     8    2
    23     7     9   am
    24     9    11    1
    25    11    12    1
    26    11    13    1
    27    13    14   ar
    28    14    15   ar
    29    15    16   ar
    30    16    17   ar
    31     6     2    1
    32    17    13   ar
    33    21    19    1
    34    27    22   ar
    35     9    10    1
    36    17    18    1
@<TRIPOS>MOLECULE
*****
 33 36 0 0 0
SMALL
GASTEIGER

@<TRIPOS>ATOM
      1 C         141.5655  140.9393  162.6509 C.3     1  UNL1        0.0285
      2 C         140.1281  140.7468  163.0343 C.2     1  UNL1       -0.0155
      3 C         139.5782  139.6188  163.8559 C.2     1  UNL1       -0.0059
      4 C         138.0985  139.8235  163.9927 C.2     1  UNL1        0.0895
      5 N         137.7340  141.0779  163.2556 N.2     1  UNL1       -0.2578
      6 C         138.9883  141.6486  162.6633 C.3     1  UNL1        0.1970
      7 C         139.0858  142.9012  161.8437 C.2     1  UNL1        0.2490
      8 O         138.0609  143.1874  160.7866 O.2     1  UNL1       -0.2726
      9 N         140.2082  143.8674  162.0814 N.am    1  UNL1       -0.2977
     10 H         140.8809  143.6795  162.7753 H       1  UNL1        0.1498
     11 C         140.3057  145.1200  161.2619 C.3     1  UNL1        0.1300
     12 C         139.6942  146.3944  161.7642 C.3     1  UNL1        0.0295
     13 C         141.0147  145.0982  159.9402 C.ar    1  UNL1        0.1524
     14 N         140.5318  145.7337  158.6701 N.ar    1  UNL1       -0.2065
     15 C         141.5497  145.4653  157.6015 C.ar    1  UNL1        0.2204
     16 N         142.6616  144.6640  158.2112 N.ar    1  UNL1       -0.1489
     17 N         142.3309  144.4371  159.6566 N.ar    1  UNL1       -0.2602
     18 H         142.8811  143.9413  160.3052 H       1  UNL1        0.1903
     19 C         140.3690  138.4852  164.4386 C.3     1  UNL1        0.0387
     20 C         140.1502  137.4442  163.3809 C.3     1  UNL1        0.0088
     21 C         140.9885  137.1267  164.5837 C.3     1  UNL1        0.0088
     22 C         140.8625  139.1324  165.6986 C.ar    1  UNL1       -0.0183
     23 C         142.3109  139.4969  165.8370 C.ar    1  UNL1       -0.0040
     24 C         142.8043  140.1441  167.0970 C.ar    1  UNL1        0.0042
     25 C         141.8493  140.4269  168.2186 C.ar    1  UNL1        0.0810
     26 C         140.4009  140.0625  168.0802 C.ar    1  UNL1        0.0720
     27 C         139.9075  139.4152  166.8202 C.ar    1  UNL1        0.0063
     28 C         142.3427  141.0742  169.4786 C.3     1  UNL1        0.4192
     29 F         142.8362  141.7215  170.7385 F       1  UNL1       -0.1658
     30 F         142.6246  139.7218  170.0630 F       1  UNL1       -0.1658
     31 F         142.0608  142.4266  168.8942 F       1  UNL1       -0.1658
     32 C         139.4458  140.3452  169.2017 C.1     1  UNL1        0.1004
     33 N         138.4908  140.6280  170.3233 N.1     1  UNL1       -0.1908
@<TRIPOS>BOND
     1     1     2    1
     2     2     3    2
     3     3    19    1
     4    19    22    1
     5    22    23   ar
     6    23    24   ar
     7    24    25   ar
     8    25    28    1
     9    28    29    1
    10    28    30    1
    11    28    31    1
    12    25    26   ar
    13    26    32    1
    14    32    33    3
    15    26    27   ar
    16    19    20    1
    17    20    21    1
    18     3     4    1
    19     4     5    2
    20     5     6    1
    21     6     7    1
    22     7     8    2
    23     7     9   am
    24     9    11    1
    25    11    12    1
    26    11    13    1
    27    13    14   ar
    28    14    15   ar
    29    15    16   ar
    30    16    17   ar
    31     6     2    1
    32    17    13   ar
    33    21    19    1
    34    27    22   ar
    35     9    10    1
    36    17    18    1
@<TRIPOS>MOLECULE
*****
 33 36 0 0 0
SMALL
GASTEIGER

@<TRIPOS>ATOM
      1 C         143.8523  142.4139  160.7126 C.3     1  UNL1        0.0285
      2 C         143.5826  141.1654  161.4992 C.2     1  UNL1       -0.0155
      3 C         143.6137  141.0410  162.9936 C.2     1  UNL1       -0.0059
      4 C         143.2847  139.6208  163.3473 C.2     1  UNL1        0.0895
      5 N         143.0504  138.8677  162.0714 N.2     1  UNL1       -0.2578
      6 C         143.2345  139.8223  160.9292 C.3     1  UNL1        0.1970
      7 C         143.0950  139.4918  159.4727 C.2     1  UNL1        0.2490
      8 O         144.1933  139.8465  158.5147 O.2     1  UNL1       -0.2726
      9 N         141.8571  138.8067  158.9744 N.am    1  UNL1       -0.2977
     10 H         141.1363  138.5740  159.6032 H       1  UNL1        0.1498
     11 C         141.7176  138.4762  157.5179 C.3     1  UNL1        0.1300
     12 C         140.5862  139.0567  156.7222 C.3     1  UNL1        0.0295
     13 C         142.7095  137.5654  156.8571 C.ar    1  UNL1        0.1524
     14 N         142.6356  136.0680  156.8089 N.ar    1  UNL1       -0.2065
     15 C         143.8298  135.5693  156.0506 C.ar    1  UNL1        0.2204
     16 N         144.6418  136.7584  155.6301 N.ar    1  UNL1       -0.1489
     17 N         143.9493  137.9921  156.1286 N.ar    1  UNL1       -0.2602
     18 H         144.2550  138.9191  156.0002 H       1  UNL1        0.1903
     19 C         143.9199  142.1430  163.9641 C.3     1  UNL1        0.0387
     20 C         145.4130  142.0189  164.0365 C.3     1  UNL1        0.0088
     21 C         144.7076  143.0690  164.8427 C.3     1  UNL1        0.0088
     22 C         142.5330  142.6498  164.2286 C.ar    1  UNL1       -0.0183
     23 C         141.7682  142.1547  165.4201 C.ar    1  UNL1       -0.0040
     24 C         140.3814  142.6615  165.6846 C.ar    1  UNL1        0.0042
     25 C         139.7595  143.6634  164.7575 C.ar    1  UNL1        0.0810
     26 C         140.5244  144.1585  163.5660 C.ar    1  UNL1        0.0720
     27 C         141.9111  143.6517  163.3015 C.ar    1  UNL1        0.0063
     28 C         138.3727  144.1702  165.0221 C.3     1  UNL1        0.4192
     29 F         136.9859  144.6770  165.2866 F       1  UNL1       -0.1658
     30 F         137.8040  143.0195  164.2459 F       1  UNL1       -0.1658
     31 F         138.9413  145.3209  165.7982 F       1  UNL1       -0.1658
     32 C         139.9025  145.1604  162.6389 C.1     1  UNL1        0.1004
     33 N         139.2806  146.1622  161.7118 N.1     1  UNL1       -0.1908
@<TRIPOS>BOND
     1     1     2    1
     2     2     3    2
     3     3    19    1
     4    19    22    1
     5    22    23   ar
     6    23    24   ar
     7    24    25   ar
     8    25    28    1
     9    28    29    1
    10    28    30    1
    11    28    31    1
    12    25    26   ar
    13    26    32    1
    14    32    33    3
    15    26    27   ar
    16    19    20    1
    17    20    21    1
    18     3     4    1
    19     4     5    2
    20     5     6    1
    21     6     7    1
    22     7     8    2
    23     7     9   am
    24     9    11    1
    25    11    12    1
    26    11    13    1
    27    13    14   ar
    28    14    15   ar
    29    15    16   ar
    30    16    17   ar
    31     6     2    1
    32    17    13   ar
    33    21    19    1
    34    27    22   ar
    35     9    10    1
    36    17    18    1
@<TRIPOS>MOLECULE
*****
 33 36 0 0 0
SMALL
GASTEIGER

@<TRIPOS>ATOM
      1 C         139.7622  141.6653  163.9888 C.3     1  UNL1        0.0285
      2 C         140.3159  140.2782  163.8496 C.2     1  UNL1       -0.0155
      3 C         140.1597  139.1630  164.8405 C.2     1  UNL1       -0.0059
      4 C         140.8703  137.9584  164.2983 C.2     1  UNL1        0.0895
      5 N         141.4657  138.3292  162.9724 N.2     1  UNL1       -0.2578
      6 C         141.1231  139.7629  162.6951 C.3     1  UNL1        0.1970
      7 C         141.5182  140.5442  161.4771 C.2     1  UNL1        0.2490
      8 O         140.9951  140.1466  160.1287 O.2     1  UNL1       -0.2726
      9 N         142.4365  141.7230  161.6076 N.am    1  UNL1       -0.2977
     10 H         142.7799  141.9839  162.4926 H       1  UNL1        0.1498
     11 C         142.8317  142.5043  160.3896 C.3     1  UNL1        0.1300
     12 C         144.2153  142.3668  159.8266 C.3     1  UNL1        0.0295
     13 C         141.8432  143.4230  159.7346 C.ar    1  UNL1        0.1524
     14 N         141.9256  144.9201  159.6910 N.ar    1  UNL1       -0.2065
     15 C         140.7322  145.4282  158.9376 C.ar    1  UNL1        0.2204
     16 N         139.9122  144.2451  158.5156 N.ar    1  UNL1       -0.1489
     17 N         140.5989  143.0058  159.0081 N.ar    1  UNL1       -0.2602
     18 H         140.2876  142.0810  158.8776 H       1  UNL1        0.1903
     19 C         139.4223  139.2389  166.1445 C.3     1  UNL1        0.0387
     20 C         138.1508  138.5390  165.7660 C.3     1  UNL1        0.0088
     21 C         138.3323  139.0627  167.1599 C.3     1  UNL1        0.0088
     22 C         140.4379  139.9653  166.9760 C.ar    1  UNL1       -0.0183
     23 C         141.8468  139.4564  167.0526 C.ar    1  UNL1       -0.0040
     24 C         142.8623  140.1828  167.8840 C.ar    1  UNL1        0.0042
     25 C         142.4688  141.4179  168.6388 C.ar    1  UNL1        0.0810
     26 C         141.0598  141.9267  168.5621 C.ar    1  UNL1        0.0720
     27 C         140.0444  141.2004  167.7307 C.ar    1  UNL1        0.0063
     28 C         143.4843  142.1442  169.4702 C.3     1  UNL1        0.4192
     29 F         144.4998  142.8705  170.3015 F       1  UNL1       -0.1658
     30 F         142.9809  141.4436  170.6972 F       1  UNL1       -0.1658
     31 F         143.9878  142.8448  168.2432 F       1  UNL1       -0.1658
     32 C         140.6663  143.1618  169.3168 C.1     1  UNL1        0.1004
     33 N         140.2729  144.3969  170.0716 N.1     1  UNL1       -0.1908
@<TRIPOS>BOND
     1     1     2    1
     2     2     3    2
     3     3    19    1
     4    19    22    1
     5    22    23   ar
     6    23    24   ar
     7    24    25   ar
     8    25    28    1
     9    28    29    1
    10    28    30    1
    11    28    31    1
    12    25    26   ar
    13    26    32    1
    14    32    33    3
    15    26    27   ar
    16    19    20    1
    17    20    21    1
    18     3     4    1
    19     4     5    2
    20     5     6    1
    21     6     7    1
    22     7     8    2
    23     7     9   am
    24     9    11    1
    25    11    12    1
    26    11    13    1
    27    13    14   ar
    28    14    15   ar
    29    15    16   ar
    30    16    17   ar
    31     6     2    1
    32    17    13   ar
    33    21    19    1
    34    27    22   ar
    35     9    10    1
    36    17    18    1
@<TRIPOS>MOLECULE
*****
 33 36 0 0 0
SMALL
GASTEIGER

@<TRIPOS>ATOM
      1 C         142.8410  142.7265  161.2420 C.3     1  UNL1        0.0285
      2 C         142.0674  143.8636  161.8410 C.2     1  UNL1       -0.0155
      3 C         142.0520  144.2531  163.2894 C.2     1  UNL1       -0.0059
      4 C         141.1484  145.4410  163.4402 C.2     1  UNL1        0.0895
      5 N         140.6055  145.7854  162.0851 N.2     1  UNL1       -0.2578
      6 C         141.1734  144.8106  161.0966 C.3     1  UNL1        0.1970
      7 C         140.8961  144.7868  159.6227 C.2     1  UNL1        0.2490
      8 O         139.5982  144.2345  159.1126 O.2     1  UNL1       -0.2726
      9 N         141.9167  145.3155  158.6589 N.am    1  UNL1       -0.2977
     10 H         142.7685  145.6780  158.9938 H       1  UNL1        0.1498
     11 C         141.6393  145.2917  157.1850 C.3     1  UNL1        0.1300
     12 C         142.3339  144.2931  156.3071 C.3     1  UNL1        0.0295
     13 C         140.6675  146.2666  156.5889 C.ar    1  UNL1        0.1524
     14 N         140.5981  146.6719  155.1463 N.ar    1  UNL1       -0.2065
     15 C         139.4822  147.6630  154.9967 C.ar    1  UNL1        0.2204
     16 N         138.8620  147.8703  156.3467 N.ar    1  UNL1       -0.1489
     17 N         139.5946  147.0072  157.3308 N.ar    1  UNL1       -0.2602
     18 H         139.4046  146.9388  158.2943 H       1  UNL1        0.1903
     19 C         142.8074  143.5742  164.3932 C.3     1  UNL1        0.0387
     20 C         144.0995  144.3334  164.3298 C.3     1  UNL1        0.0088
     21 C         143.9204  143.2408  165.3419 C.3     1  UNL1        0.0088
     22 C         141.7775  142.5793  164.8399 C.ar    1  UNL1       -0.0183
     23 C         140.6304  143.0217  165.6992 C.ar    1  UNL1       -0.0040
     24 C         139.6006  142.0267  166.1459 C.ar    1  UNL1        0.0042
     25 C         139.7178  140.5894  165.7331 C.ar    1  UNL1        0.0810
     26 C         140.8649  140.1470  164.8738 C.ar    1  UNL1        0.0720
     27 C         141.8947  141.1419  164.4271 C.ar    1  UNL1        0.0063
     28 C         138.6879  139.5945  166.1798 C.3     1  UNL1        0.4192
     29 F         137.6581  138.5996  166.6265 F       1  UNL1       -0.1658
     30 F         139.4747  139.3420  167.4317 F       1  UNL1       -0.1658
     31 F         137.9012  139.8469  164.9280 F       1  UNL1       -0.1658
     32 C         140.9821  138.7097  164.4611 C.1     1  UNL1        0.1004
     33 N         141.0993  137.2723  164.0483 N.1     1  UNL1       -0.1908
@<TRIPOS>BOND
     1     1     2    1
     2     2     3    2
     3     3    19    1
     4    19    22    1
     5    22    23   ar
     6    23    24   ar
     7    24    25   ar
     8    25    28    1
     9    28    29    1
    10    28    30    1
    11    28    31    1
    12    25    26   ar
    13    26    32    1
    14    32    33    3
    15    26    27   ar
    16    19    20    1
    17    20    21    1
    18     3     4    1
    19     4     5    2
    20     5     6    1
    21     6     7    1
    22     7     8    2
    23     7     9   am
    24     9    11    1
    25    11    12    1
    26    11    13    1
    27    13    14   ar
    28    14    15   ar
    29    15    16   ar
    30    16    17   ar
    31     6     2    1
    32    17    13   ar
    33    21    19    1
    34    27    22   ar
    35     9    10    1
    36    17    18    1
@<TRIPOS>MOLECULE
*****
 33 36 0 0 0
SMALL
GASTEIGER

@<TRIPOS>ATOM
      1 C         140.1478  141.1334  163.7240 C.3     1  UNL1        0.0285
      2 C         140.5858  139.7011  163.8081 C.2     1  UNL1       -0.0155
      3 C         140.2639  138.7445  164.9176 C.2     1  UNL1       -0.0059
      4 C         140.9018  137.4263  164.5925 C.2     1  UNL1        0.0895
      5 N         141.6177  137.5683  163.2821 N.2     1  UNL1       -0.2578
      6 C         141.4224  138.9743  162.7973 C.3     1  UNL1        0.1970
      7 C         141.9680  139.5520  161.5250 C.2     1  UNL1        0.2490
      8 O         143.4502  139.6063  161.3011 O.2     1  UNL1       -0.2726
      9 N         141.0314  140.0753  160.4768 N.am    1  UNL1       -0.2977
     10 H         140.0586  140.0396  160.6238 H       1  UNL1        0.1498
     11 C         141.5770  140.6530  159.2045 C.3     1  UNL1        0.1300
     12 C         141.5746  142.1382  158.9937 C.3     1  UNL1        0.0295
     13 C         142.1248  139.7456  158.1432 C.ar    1  UNL1        0.1524
     14 N         141.4588  139.4075  156.8424 N.ar    1  UNL1       -0.2065
     15 C         142.3573  138.4699  156.0917 C.ar    1  UNL1        0.2204
     16 N         143.5787  138.2286  156.9284 N.ar    1  UNL1       -0.1489
     17 N         143.4350  139.0171  158.1964 N.ar    1  UNL1       -0.2602
     18 H         144.0862  139.0506  158.9339 H       1  UNL1        0.1903
     19 C         139.4477  139.0518  166.1379 C.3     1  UNL1        0.0387
     20 C         138.1511  138.4023  165.7545 C.3     1  UNL1        0.0088
     21 C         138.2796  139.0966  167.0780 C.3     1  UNL1        0.0088
     22 C         140.4609  139.8081  166.9452 C.ar    1  UNL1       -0.0183
     23 C         141.8791  139.3242  167.0122 C.ar    1  UNL1       -0.0040
     24 C         142.8922  140.0804  167.8194 C.ar    1  UNL1        0.0042
     25 C         142.4871  141.3206  168.5596 C.ar    1  UNL1        0.0810
     26 C         141.0689  141.8045  168.4926 C.ar    1  UNL1        0.0720
     27 C         140.0558  141.0482  167.6854 C.ar    1  UNL1        0.0063
     28 C         143.5003  142.0769  169.3669 C.3     1  UNL1        0.4192
     29 F         144.5134  142.8331  170.1741 F       1  UNL1       -0.1658
     30 F         143.9253  142.8214  168.1361 F       1  UNL1       -0.1658
     31 F         143.0753  141.3323  170.5977 F       1  UNL1       -0.1658
     32 C         140.6638  143.0446  169.2329 C.1     1  UNL1        0.1004
     33 N         140.2587  144.2848  169.9731 N.1     1  UNL1       -0.1908
@<TRIPOS>BOND
     1     1     2    1
     2     2     3    2
     3     3    19    1
     4    19    22    1
     5    22    23   ar
     6    23    24   ar
     7    24    25   ar
     8    25    28    1
     9    28    29    1
    10    28    30    1
    11    28    31    1
    12    25    26   ar
    13    26    32    1
    14    32    33    3
    15    26    27   ar
    16    19    20    1
    17    20    21    1
    18     3     4    1
    19     4     5    2
    20     5     6    1
    21     6     7    1
    22     7     8    2
    23     7     9   am
    24     9    11    1
    25    11    12    1
    26    11    13    1
    27    13    14   ar
    28    14    15   ar
    29    15    16   ar
    30    16    17   ar
    31     6     2    1
    32    17    13   ar
    33    21    19    1
    34    27    22   ar
    35     9    10    1
    36    17    18    1
@<TRIPOS>MOLECULE
*****
 33 36 0 0 0
SMALL
GASTEIGER

@<TRIPOS>ATOM
      1 C         141.0423  140.5974  162.0006 C.3     1  UNL1        0.0285
      2 C         142.3490  140.2140  162.6299 C.2     1  UNL1       -0.0155
      3 C         142.5354  139.2248  163.7419 C.2     1  UNL1       -0.0059
      4 C         144.0002  139.1520  164.0568 C.2     1  UNL1        0.0895
      5 N         144.7190  140.0962  163.1392 N.2     1  UNL1       -0.2578
      6 C         143.6985  140.7525  162.2574 C.3     1  UNL1        0.1970
      7 C         143.9784  141.7690  161.1903 C.2     1  UNL1        0.2490
      8 O         144.5924  143.0883  161.5538 O.2     1  UNL1       -0.2726
      9 N         143.6442  141.4659  159.7598 N.am    1  UNL1       -0.2977
     10 H         143.2411  140.5999  159.5212 H       1  UNL1        0.1498
     11 C         143.9240  142.4824  158.6927 C.3     1  UNL1        0.1300
     12 C         145.0889  142.2957  157.7662 C.3     1  UNL1        0.0295
     13 C         143.0391  143.6854  158.5522 C.ar    1  UNL1        0.1524
     14 N         142.6402  144.3407  157.2633 N.ar    1  UNL1       -0.2065
     15 C         141.7523  145.5045  157.5905 C.ar    1  UNL1        0.2204
     16 N         141.6025  145.5685  159.0817 N.ar    1  UNL1       -0.1489
     17 N         142.3978  144.4441  159.6761 N.ar    1  UNL1       -0.2602
     18 H         142.4838  144.2400  160.6353 H       1  UNL1        0.1903
     19 C         141.4480  138.4453  164.4202 C.3     1  UNL1        0.0387
     20 C         141.3554  137.2683  163.4950 C.3     1  UNL1        0.0088
     21 C         140.4596  137.3510  164.6954 C.3     1  UNL1        0.0088
     22 C         141.1630  139.3518  165.5809 C.ar    1  UNL1       -0.0183
     23 C         140.0729  140.3773  165.4816 C.ar    1  UNL1       -0.0040
     24 C         139.7880  141.2836  166.6423 C.ar    1  UNL1        0.0042
     25 C         140.5931  141.1645  167.9023 C.ar    1  UNL1        0.0810
     26 C         141.6832  140.1389  168.0016 C.ar    1  UNL1        0.0720
     27 C         141.9682  139.2326  166.8409 C.ar    1  UNL1        0.0063
     28 C         140.3081  142.0709  169.0630 C.3     1  UNL1        0.4192
     29 F         140.0231  142.9773  170.2237 F       1  UNL1       -0.1658
     30 F         141.3469  143.0326  168.5671 F       1  UNL1       -0.1658
     31 F         139.2694  141.1092  169.5590 F       1  UNL1       -0.1658
     32 C         142.4884  140.0198  169.2615 C.1     1  UNL1        0.1004
     33 N         143.2936  139.9006  170.5215 N.1     1  UNL1       -0.1908
@<TRIPOS>BOND
     1     1     2    1
     2     2     3    2
     3     3    19    1
     4    19    22    1
     5    22    23   ar
     6    23    24   ar
     7    24    25   ar
     8    25    28    1
     9    28    29    1
    10    28    30    1
    11    28    31    1
    12    25    26   ar
    13    26    32    1
    14    32    33    3
    15    26    27   ar
    16    19    20    1
    17    20    21    1
    18     3     4    1
    19     4     5    2
    20     5     6    1
    21     6     7    1
    22     7     8    2
    23     7     9   am
    24     9    11    1
    25    11    12    1
    26    11    13    1
    27    13    14   ar
    28    14    15   ar
    29    15    16   ar
    30    16    17   ar
    31     6     2    1
    32    17    13   ar
    33    21    19    1
    34    27    22   ar
    35     9    10    1
    36    17    18    1
@<TRIPOS>MOLECULE
*****
 33 36 0 0 0
SMALL
GASTEIGER

@<TRIPOS>ATOM
      1 C         142.3785  139.5644  162.2504 C.3     1  UNL1        0.0285
      2 C         141.3621  140.5760  162.6905 C.2     1  UNL1       -0.0155
      3 C         140.2299  140.3312  163.6434 C.2     1  UNL1       -0.0059
      4 C         139.4675  141.6139  163.7968 C.2     1  UNL1        0.0895
      5 N         140.1287  142.6515  162.9386 N.2     1  UNL1       -0.2578
      6 C         141.2996  142.0100  162.2549 C.3     1  UNL1        0.1970
      7 C         142.2424  142.6842  161.3028 C.2     1  UNL1        0.2490
      8 O         143.0461  143.8673  161.7549 O.2     1  UNL1       -0.2726
      9 N         142.3815  142.1753  159.8987 N.am    1  UNL1       -0.2977
     10 H         141.8540  141.3988  159.6020 H       1  UNL1        0.1498
     11 C         143.3244  142.8495  158.9466 C.3     1  UNL1        0.1300
     12 C         144.7591  142.4166  158.8792 C.3     1  UNL1        0.0295
     13 C         142.8326  143.9565  158.0618 C.ar    1  UNL1        0.1524
     14 N         142.1721  145.2232  158.5191 N.ar    1  UNL1       -0.2065
     15 C         141.8463  146.0406  157.3044 C.ar    1  UNL1        0.2204
     16 N         142.3054  145.2791  156.0963 N.ar    1  UNL1       -0.1489
     17 N         142.9150  143.9910  156.5645 N.ar    1  UNL1       -0.2602
     18 H         143.3014  143.2911  155.9899 H       1  UNL1        0.1903
     19 C         139.9151  139.0318  164.3235 C.3     1  UNL1        0.0387
     20 C         139.1098  138.3636  163.2488 C.3     1  UNL1        0.0088
     21 C         139.3587  137.6571  164.5485 C.3     1  UNL1        0.0088
     22 C         140.6112  139.2488  165.6345 C.ar    1  UNL1       -0.0183
     23 C         142.0600  138.8897  165.7829 C.ar    1  UNL1       -0.0040
     24 C         142.7559  139.1067  167.0937 C.ar    1  UNL1        0.0042
     25 C         142.0032  139.6829  168.2562 C.ar    1  UNL1        0.0810
     26 C         140.5544  140.0420  168.1078 C.ar    1  UNL1        0.0720
     27 C         139.8584  139.8250  166.7969 C.ar    1  UNL1        0.0063
     28 C         142.6993  139.8999  169.5671 C.3     1  UNL1        0.4192
     29 F         143.3953  140.1169  170.8780 F       1  UNL1       -0.1658
     30 F         142.2684  138.5369  170.0216 F       1  UNL1       -0.1658
     31 F         143.1301  141.2629  169.1127 F       1  UNL1       -0.1658
     32 C         139.8017  140.6182  169.2703 C.1     1  UNL1        0.1004
     33 N         139.0489  141.1944  170.4328 N.1     1  UNL1       -0.1908
@<TRIPOS>BOND
     1     1     2    1
     2     2     3    2
     3     3    19    1
     4    19    22    1
     5    22    23   ar
     6    23    24   ar
     7    24    25   ar
     8    25    28    1
     9    28    29    1
    10    28    30    1
    11    28    31    1
    12    25    26   ar
    13    26    32    1
    14    32    33    3
    15    26    27   ar
    16    19    20    1
    17    20    21    1
    18     3     4    1
    19     4     5    2
    20     5     6    1
    21     6     7    1
    22     7     8    2
    23     7     9   am
    24     9    11    1
    25    11    12    1
    26    11    13    1
    27    13    14   ar
    28    14    15   ar
    29    15    16   ar
    30    16    17   ar
    31     6     2    1
    32    17    13   ar
    33    21    19    1
    34    27    22   ar
    35     9    10    1
    36    17    18    1
@<TRIPOS>MOLECULE
*****
 33 36 0 0 0
SMALL
GASTEIGER

@<TRIPOS>ATOM
      1 C         143.6853  142.1477  160.7183 C.3     1  UNL1        0.0285
      2 C         143.7390  140.8687  161.5004 C.2     1  UNL1       -0.0155
      3 C         144.0186  140.7443  162.9688 C.2     1  UNL1       -0.0059
      4 C         143.9749  139.2883  163.3271 C.2     1  UNL1        0.0895
      5 N         143.6684  138.5130  162.0802 N.2     1  UNL1       -0.2578
      6 C         143.5226  139.4897  160.9512 C.3     1  UNL1        0.1970
      7 C         143.2145  139.1476  159.5235 C.2     1  UNL1        0.2490
      8 O         144.0746  139.6887  158.4203 O.2     1  UNL1       -0.2726
      9 N         142.0463  138.2643  159.1994 N.am    1  UNL1       -0.2977
     10 H         141.4818  137.9092  159.9236 H       1  UNL1        0.1498
     11 C         141.7382  137.9222  157.7718 C.3     1  UNL1        0.1300
     12 C         140.4293  138.3362  157.1670 C.3     1  UNL1        0.0295
     13 C         142.7389  137.1661  156.9490 C.ar    1  UNL1        0.1524
     14 N         142.7794  135.6789  156.7576 N.ar    1  UNL1       -0.2065
     15 C         143.9403  135.3582  155.8635 C.ar    1  UNL1        0.2204
     16 N         144.6172  136.6472  155.5022 N.ar    1  UNL1       -0.1489
     17 N         143.8746  137.7646  156.1731 N.ar    1  UNL1       -0.2602
     18 H         144.0941  138.7225  156.1145 H       1  UNL1        0.1903
     19 C         144.2935  141.8768  163.9131 C.3     1  UNL1        0.0387
     20 C         145.7851  141.7659  164.0257 C.3     1  UNL1        0.0088
     21 C         145.0533  142.8343  164.7827 C.3     1  UNL1        0.0088
     22 C         142.8972  142.3810  164.1285 C.ar    1  UNL1       -0.0183
     23 C         142.5793  143.8291  163.9009 C.ar    1  UNL1       -0.0040
     24 C         141.1831  144.3332  164.1163 C.ar    1  UNL1        0.0042
     25 C         140.1048  143.3893  164.5593 C.ar    1  UNL1        0.0810
     26 C         140.4228  141.9412  164.7870 C.ar    1  UNL1        0.0720
     27 C         141.8190  141.4370  164.5716 C.ar    1  UNL1        0.0063
     28 C         138.7086  143.8935  164.7748 C.3     1  UNL1        0.4192
     29 F         137.3124  144.3976  164.9901 F       1  UNL1       -0.1658
     30 F         139.0818  144.3360  166.1585 F       1  UNL1       -0.1658
     31 F         138.3354  143.4509  163.3910 F       1  UNL1       -0.1658
     32 C         139.3446  140.9972  165.2301 C.1     1  UNL1        0.1004
     33 N         138.2663  140.0532  165.6732 N.1     1  UNL1       -0.1908
@<TRIPOS>BOND
     1     1     2    1
     2     2     3    2
     3     3    19    1
     4    19    22    1
     5    22    23   ar
     6    23    24   ar
     7    24    25   ar
     8    25    28    1
     9    28    29    1
    10    28    30    1
    11    28    31    1
    12    25    26   ar
    13    26    32    1
    14    32    33    3
    15    26    27   ar
    16    19    20    1
    17    20    21    1
    18     3     4    1
    19     4     5    2
    20     5     6    1
    21     6     7    1
    22     7     8    2
    23     7     9   am
    24     9    11    1
    25    11    12    1
    26    11    13    1
    27    13    14   ar
    28    14    15   ar
    29    15    16   ar
    30    16    17   ar
    31     6     2    1
    32    17    13   ar
    33    21    19    1
    34    27    22   ar
    35     9    10    1
    36    17    18    1
