@<TRIPOS>MOLECULE
*****
 36 39 0 0 0
SMALL
GASTEIGER

@<TRIPOS>ATOM
      1 N         142.6451  141.2525  159.8842 N.3     1  UNL1       -0.2673
      2 C         141.2318  141.6575  159.5872 C.3     1  UNL1        0.1035
      3 C         140.5306  142.6407  160.4769 C.3     1  UNL1        0.1470
      4 C         139.8294  143.6240  161.3666 C.3     1  UNL1        0.1035
      5 N         140.5416  144.2022  162.5534 N.3     1  UNL1       -0.2682
      6 C         141.9551  143.7971  162.8504 C.3     1  UNL1        0.1035
      7 C         142.6562  142.8139  161.9607 C.3     1  UNL1        0.1470
      8 C         143.3574  141.8306  161.0710 C.3     1  UNL1        0.1035
      9 O         141.2429  143.2189  161.6636 O.3     1  UNL1       -0.3530
     10 C         143.3463  140.2692  158.9945 C.3     1  UNL1        0.0913
     11 C         142.7077  138.9471  158.6877 C.3     1  UNL1        0.1087
     12 N         142.8932  137.7894  159.6234 N.3     1  UNL1       -0.1780
     13 H         142.1382  137.1312  159.4307 H       1  UNL1        0.1488
     14 S         142.9014  138.0171  161.1060 S.O2    1  UNL1        0.0603
     15 O         144.3825  137.7817  161.1340 O.2     1  UNL1       -0.1530
     16 O         141.4202  138.2526  161.0779 O.2     1  UNL1       -0.1530
     17 C         142.9258  138.7004  165.5537 C.ar    1  UNL1        0.0685
     18 C         141.7927  137.9524  164.9161 C.ar    1  UNL1        0.0116
     19 C         141.7846  137.7246  163.4334 C.ar    1  UNL1        0.0206
     20 C         142.9095  138.2449  162.5885 C.ar    1  UNL1        0.1220
     21 C         144.0426  138.9929  163.2262 C.ar    1  UNL1        0.0206
     22 C         144.0507  139.2207  164.7088 C.ar    1  UNL1        0.0116
     23 N         142.9420  139.1559  168.5189 N.1     1  UNL1       -0.1908
     24 C         142.9339  138.9281  167.0363 C.1     1  UNL1        0.1004
     25 C         139.8405  145.1854  163.4431 C.3     1  UNL1        0.0769
     26 C         139.2340  144.7270  164.7362 C.3     1  UNL1        0.0437
     27 C         139.0328  143.2629  164.9929 C.ar    1  UNL1       -0.0208
     28 C         139.9550  142.5307  165.9220 C.ar    1  UNL1       -0.0043
     29 C         139.7538  141.0665  166.1786 C.ar    1  UNL1        0.0035
     30 C         138.6303  140.3347  165.5061 C.ar    1  UNL1        0.0714
     31 C         137.7081  141.0670  164.5770 C.ar    1  UNL1        0.0035
     32 C         137.9093  142.5311  164.3203 C.ar    1  UNL1       -0.0043
     33 C         138.4291  138.8706  165.7628 C.3     1  UNL1        0.4186
     34 F         138.2278  137.4065  166.0194 F       1  UNL1       -0.1659
     35 F         138.4097  138.6142  164.2850 F       1  UNL1       -0.1659
     36 F         138.4485  139.1269  167.2405 F       1  UNL1       -0.1659
@<TRIPOS>BOND
     1    23    24    3
     2    24    17    1
     3    17    18   ar
     4    18    19   ar
     5    19    20   ar
     6    20    14    1
     7    14    15    2
     8    14    16    2
     9    14    12    1
    10    12    11    1
    11    11    10    1
    12    10     1    1
    13     1     2    1
    14     2     3    1
    15     3     4    1
    16     4     5    1
    17     5    25    1
    18    25    26    1
    19    26    27    1
    20    27    28   ar
    21    28    29   ar
    22    29    30   ar
    23    30    33    1
    24    33    34    1
    25    33    35    1
    26    33    36    1
    27    30    31   ar
    28    31    32   ar
    29     5     6    1
    30     6     7    1
    31     7     8    1
    32     7     9    1
    33    20    21   ar
    34    21    22   ar
    35    22    17   ar
    36     8     1    1
    37     9     3    1
    38    32    27   ar
    39    12    13    1
@<TRIPOS>MOLECULE
*****
 36 39 0 0 0
SMALL
GASTEIGER

@<TRIPOS>ATOM
      1 N         138.8197  144.2093  161.5724 N.3     1  UNL1       -0.2673
      2 C         139.3830  143.3014  160.5196 C.3     1  UNL1        0.1035
      3 C         139.1248  141.8253  160.5859 C.3     1  UNL1        0.1470
      4 C         138.8666  140.3491  160.6522 C.3     1  UNL1        0.1035
      5 N         138.0452  139.7809  161.7713 N.3     1  UNL1       -0.2682
      6 C         137.4820  140.6889  162.8241 C.3     1  UNL1        0.1035
      7 C         137.7401  142.1650  162.7578 C.3     1  UNL1        0.1470
      8 C         137.9983  143.6411  162.6915 C.3     1  UNL1        0.1035
      9 O         138.3034  141.2571  161.7050 O.3     1  UNL1       -0.3530
     10 C         139.0779  145.6855  161.5061 C.3     1  UNL1        0.0913
     11 C         140.2125  146.2841  162.2834 C.3     1  UNL1        0.1087
     12 N         141.5169  145.5511  162.3912 N.3     1  UNL1       -0.1780
     13 H         141.6340  145.0293  161.5227 H       1  UNL1        0.1488
     14 S         141.7415  144.5810  163.5129 S.O2    1  UNL1        0.0603
     15 O         140.6390  145.2305  164.2955 O.2     1  UNL1       -0.1530
     16 O         142.8441  143.9315  162.7303 O.2     1  UNL1       -0.1530
     17 C         142.4156  141.6706  166.8782 C.ar    1  UNL1        0.0685
     18 C         141.0320  142.1697  166.5841 C.ar    1  UNL1        0.0116
     19 C         140.8073  143.1399  165.4623 C.ar    1  UNL1        0.0206
     20 C         141.9662  143.6109  164.6346 C.ar    1  UNL1        0.1220
     21 C         143.3499  143.1117  164.9288 C.ar    1  UNL1        0.0206
     22 C         143.5746  142.1416  166.0505 C.ar    1  UNL1        0.0116
     23 N         142.8651  139.7303  169.1217 N.1     1  UNL1       -0.1908
     24 C         142.6403  140.7005  167.9999 C.1     1  UNL1        0.1004
     25 C         137.7870  138.3048  161.8376 C.3     1  UNL1        0.0769
     26 C         138.5242  137.4585  162.8328 C.3     1  UNL1        0.0437
     27 C         139.9195  137.8262  163.2425 C.ar    1  UNL1       -0.0208
     28 C         140.1998  138.2486  164.6542 C.ar    1  UNL1       -0.0043
     29 C         141.5951  138.6164  165.0640 C.ar    1  UNL1        0.0035
     30 C         142.7101  138.5618  164.0621 C.ar    1  UNL1        0.0714
     31 C         142.4297  138.1394  162.6503 C.ar    1  UNL1        0.0035
     32 C         141.0344  137.7716  162.2405 C.ar    1  UNL1       -0.0043
     33 C         144.1053  138.9296  164.4718 C.3     1  UNL1        0.4186
     34 F         145.5006  139.2974  164.8815 F       1  UNL1       -0.1659
     35 F         144.4009  139.3709  163.0690 F       1  UNL1       -0.1659
     36 F         143.8097  138.4883  165.8746 F       1  UNL1       -0.1659
@<TRIPOS>BOND
     1    23    24    3
     2    24    17    1
     3    17    18   ar
     4    18    19   ar
     5    19    20   ar
     6    20    14    1
     7    14    15    2
     8    14    16    2
     9    14    12    1
    10    12    11    1
    11    11    10    1
    12    10     1    1
    13     1     2    1
    14     2     3    1
    15     3     4    1
    16     4     5    1
    17     5    25    1
    18    25    26    1
    19    26    27    1
    20    27    28   ar
    21    28    29   ar
    22    29    30   ar
    23    30    33    1
    24    33    34    1
    25    33    35    1
    26    33    36    1
    27    30    31   ar
    28    31    32   ar
    29     5     6    1
    30     6     7    1
    31     7     8    1
    32     7     9    1
    33    20    21   ar
    34    21    22   ar
    35    22    17   ar
    36     8     1    1
    37     9     3    1
    38    32    27   ar
    39    12    13    1
@<TRIPOS>MOLECULE
*****
 36 39 0 0 0
SMALL
GASTEIGER

@<TRIPOS>ATOM
      1 N         142.3442  139.3907  159.4539 N.3     1  UNL1       -0.2673
      2 C         142.7448  138.6145  160.6733 C.3     1  UNL1        0.1035
      3 C         143.5519  139.2751  161.7513 C.3     1  UNL1        0.1470
      4 C         144.3590  139.9358  162.8293 C.3     1  UNL1        0.1035
      5 N         144.7655  141.3728  162.6880 N.3     1  UNL1       -0.2682
      6 C         144.3648  142.1490  161.4686 C.3     1  UNL1        0.1035
      7 C         143.5577  141.4884  160.3906 C.3     1  UNL1        0.1470
      8 C         142.7506  140.8277  159.3126 C.3     1  UNL1        0.1035
      9 O         143.9583  140.7121  161.6099 O.3     1  UNL1       -0.3530
     10 C         141.5371  138.7301  158.3759 C.3     1  UNL1        0.0913
     11 C         140.0972  138.3879  158.6200 C.3     1  UNL1        0.1087
     12 N         139.1965  139.3759  159.3002 N.3     1  UNL1       -0.1780
     13 H         139.5678  140.3033  159.0943 H       1  UNL1        0.1488
     14 S         138.9963  139.3096  160.7853 S.O2    1  UNL1        0.0603
     15 O         139.1505  137.8182  160.7395 O.2     1  UNL1       -0.1530
     16 O         138.8421  140.8009  160.8311 O.2     1  UNL1       -0.1530
     17 C         138.3957  139.1107  165.2406 C.ar    1  UNL1        0.0685
     18 C         138.9252  137.9178  164.5012 C.ar    1  UNL1        0.0116
     19 C         139.1254  137.9841  163.0161 C.ar    1  UNL1        0.0206
     20 C         138.7961  139.2432  162.2704 C.ar    1  UNL1        0.1220
     21 C         138.2666  140.4361  163.0098 C.ar    1  UNL1        0.0206
     22 C         138.0664  140.3698  164.4949 C.ar    1  UNL1        0.0116
     23 N         137.9954  138.9781  168.2108 N.1     1  UNL1       -0.1908
     24 C         138.1956  139.0444  166.7257 C.1     1  UNL1        0.1004
     25 C         145.5725  142.0334  163.7660 C.3     1  UNL1        0.0769
     26 C         144.8884  142.8547  164.8185 C.3     1  UNL1        0.0437
     27 C         143.4369  143.2033  164.6719 C.ar    1  UNL1       -0.0208
     28 C         142.3842  142.2507  165.1560 C.ar    1  UNL1       -0.0043
     29 C         140.9326  142.5993  165.0095 C.ar    1  UNL1        0.0035
     30 C         140.5338  143.9005  164.3788 C.ar    1  UNL1        0.0714
     31 C         141.5865  144.8531  163.8947 C.ar    1  UNL1        0.0035
     32 C         143.0380  144.5045  164.0412 C.ar    1  UNL1       -0.0043
     33 C         139.0823  144.2491  164.2323 C.3     1  UNL1        0.4186
     34 F         137.6307  144.5977  164.0857 F       1  UNL1       -0.1659
     35 F         139.1001  144.8928  165.5870 F       1  UNL1       -0.1659
     36 F         139.0644  143.6054  162.8776 F       1  UNL1       -0.1659
@<TRIPOS>BOND
     1    23    24    3
     2    24    17    1
     3    17    18   ar
     4    18    19   ar
     5    19    20   ar
     6    20    14    1
     7    14    15    2
     8    14    16    2
     9    14    12    1
    10    12    11    1
    11    11    10    1
    12    10     1    1
    13     1     2    1
    14     2     3    1
    15     3     4    1
    16     4     5    1
    17     5    25    1
    18    25    26    1
    19    26    27    1
    20    27    28   ar
    21    28    29   ar
    22    29    30   ar
    23    30    33    1
    24    33    34    1
    25    33    35    1
    26    33    36    1
    27    30    31   ar
    28    31    32   ar
    29     5     6    1
    30     6     7    1
    31     7     8    1
    32     7     9    1
    33    20    21   ar
    34    21    22   ar
    35    22    17   ar
    36     8     1    1
    37     9     3    1
    38    32    27   ar
    39    12    13    1
@<TRIPOS>MOLECULE
*****
 36 39 0 0 0
SMALL
GASTEIGER

@<TRIPOS>ATOM
      1 N         140.1058  142.2761  159.3381 N.3     1  UNL1       -0.2673
      2 C         141.5807  142.0042  159.3116 C.3     1  UNL1        0.1035
      3 C         142.4899  142.7050  160.2770 C.3     1  UNL1        0.1470
      4 C         143.3993  143.4058  161.2425 C.3     1  UNL1        0.1035
      5 N         142.8336  144.3785  162.2344 N.3     1  UNL1       -0.2682
      6 C         141.3587  144.6503  162.2609 C.3     1  UNL1        0.1035
      7 C         140.4494  143.9495  161.2955 C.3     1  UNL1        0.1470
      8 C         139.5402  143.2488  160.3300 C.3     1  UNL1        0.1035
      9 O         141.9243  143.6777  161.2690 O.3     1  UNL1       -0.3530
     10 C         139.1965  141.5753  158.3726 C.3     1  UNL1        0.0913
     11 C         138.0143  140.8042  158.8804 C.3     1  UNL1        0.1087
     12 N         138.2213  139.5200  159.6276 N.3     1  UNL1       -0.1780
     13 H         137.4256  138.9206  159.4088 H       1  UNL1        0.1488
     14 S         138.3545  139.5347  161.1216 S.O2    1  UNL1        0.0603
     15 O         137.3298  140.6271  161.2022 O.2     1  UNL1       -0.1530
     16 O         139.3792  138.4423  161.0409 O.2     1  UNL1       -0.1530
     17 C         138.7541  139.5785  165.6036 C.ar    1  UNL1        0.0685
     18 C         138.3312  140.8203  164.8762 C.ar    1  UNL1        0.0116
     19 C         138.1980  140.8057  163.3821 C.ar    1  UNL1        0.0206
     20 C         138.4877  139.5493  162.6156 C.ar    1  UNL1        0.1220
     21 C         138.9105  138.3075  163.3431 C.ar    1  UNL1        0.0206
     22 C         139.0437  138.3221  164.8370 C.ar    1  UNL1        0.0116
     23 N         139.0204  139.6078  168.5916 N.1     1  UNL1       -0.1908
     24 C         138.8872  139.5931  167.0976 C.1     1  UNL1        0.1004
     25 C         143.7429  145.0793  163.1999 C.3     1  UNL1        0.0769
     26 C         144.1145  144.4189  164.4945 C.3     1  UNL1        0.0437
     27 C         143.7705  142.9776  164.7271 C.ar    1  UNL1       -0.0208
     28 C         142.4816  142.6138  165.4026 C.ar    1  UNL1       -0.0043
     29 C         142.1376  141.1724  165.6353 C.ar    1  UNL1        0.0035
     30 C         143.0824  140.0949  165.1923 C.ar    1  UNL1        0.0714
     31 C         144.3714  140.4587  164.5168 C.ar    1  UNL1        0.0035
     32 C         144.7154  141.9001  164.2842 C.ar    1  UNL1       -0.0043
     33 C         142.7384  138.6535  165.4249 C.3     1  UNL1        0.4186
     34 F         142.3944  137.2122  165.6575 F       1  UNL1       -0.1659
     35 F         142.0995  139.0170  166.7325 F       1  UNL1       -0.1659
     36 F         143.3773  138.2900  164.1174 F       1  UNL1       -0.1659
@<TRIPOS>BOND
     1    23    24    3
     2    24    17    1
     3    17    18   ar
     4    18    19   ar
     5    19    20   ar
     6    20    14    1
     7    14    15    2
     8    14    16    2
     9    14    12    1
    10    12    11    1
    11    11    10    1
    12    10     1    1
    13     1     2    1
    14     2     3    1
    15     3     4    1
    16     4     5    1
    17     5    25    1
    18    25    26    1
    19    26    27    1
    20    27    28   ar
    21    28    29   ar
    22    29    30   ar
    23    30    33    1
    24    33    34    1
    25    33    35    1
    26    33    36    1
    27    30    31   ar
    28    31    32   ar
    29     5     6    1
    30     6     7    1
    31     7     8    1
    32     7     9    1
    33    20    21   ar
    34    21    22   ar
    35    22    17   ar
    36     8     1    1
    37     9     3    1
    38    32    27   ar
    39    12    13    1
@<TRIPOS>MOLECULE
*****
 36 39 0 0 0
SMALL
GASTEIGER

@<TRIPOS>ATOM
      1 N         140.2829  141.7619  159.7154 N.3     1  UNL1       -0.2673
      2 C         141.5074  140.9269  159.9462 C.3     1  UNL1        0.1035
      3 C         142.3747  141.1823  161.1431 C.3     1  UNL1        0.1470
      4 C         143.2420  141.4376  162.3400 C.3     1  UNL1        0.1035
      5 N         142.8848  142.5280  163.3062 N.3     1  UNL1       -0.2682
      6 C         141.6602  143.3631  163.0753 C.3     1  UNL1        0.1035
      7 C         140.7930  143.1077  161.8784 C.3     1  UNL1        0.1470
      8 C         139.9257  142.8523  160.6816 C.3     1  UNL1        0.1035
      9 O         142.0174  142.2727  162.1092 O.3     1  UNL1       -0.3530
     10 C         139.4156  141.5065  158.5185 C.3     1  UNL1        0.0913
     11 C         138.0935  140.8175  158.6836 C.3     1  UNL1        0.1087
     12 N         138.0135  139.5160  159.4251 N.3     1  UNL1       -0.1780
     13 H         137.1073  139.1048  159.2012 H       1  UNL1        0.1488
     14 S         138.1411  139.4951  160.9195 S.O2    1  UNL1        0.0603
     15 O         139.0866  138.3347  160.8225 O.2     1  UNL1       -0.1530
     16 O         137.1955  140.6554  161.0164 O.2     1  UNL1       -0.1530
     17 C         138.5238  139.4324  165.4027 C.ar    1  UNL1        0.0685
     18 C         138.7991  138.1897  164.6091 C.ar    1  UNL1        0.0116
     19 C         138.6715  138.2106  163.1146 C.ar    1  UNL1        0.0206
     20 C         138.2686  139.4742  162.4138 C.ar    1  UNL1        0.1220
     21 C         137.9934  140.7169  163.2076 C.ar    1  UNL1        0.0206
     22 C         138.1210  140.6960  164.7019 C.ar    1  UNL1        0.0116
     23 N         138.7791  139.3906  168.3916 N.1     1  UNL1       -0.1908
     24 C         138.6514  139.4115  166.8971 C.1     1  UNL1        0.1004
     25 C         143.7520  142.7834  164.5030 C.3     1  UNL1        0.0769
     26 C         143.6773  141.8715  165.6917 C.3     1  UNL1        0.0437
     27 C         142.7548  142.1960  166.8291 C.ar    1  UNL1       -0.0208
     28 C         141.2814  142.3332  166.5840 C.ar    1  UNL1       -0.0043
     29 C         140.3588  142.6577  167.7214 C.ar    1  UNL1        0.0035
     30 C         140.9098  142.8450  169.1039 C.ar    1  UNL1        0.0714
     31 C         142.3833  142.7078  169.3490 C.ar    1  UNL1        0.0035
     32 C         143.3058  142.3834  168.2116 C.ar    1  UNL1       -0.0043
     33 C         139.9873  143.1695  170.2413 C.3     1  UNL1        0.4186
     34 F         139.0648  143.4940  171.3787 F       1  UNL1       -0.1659
     35 F         139.7317  141.7065  170.4513 F       1  UNL1       -0.1659
     36 F         140.2430  144.6325  170.0312 F       1  UNL1       -0.1659
@<TRIPOS>BOND
     1    23    24    3
     2    24    17    1
     3    17    18   ar
     4    18    19   ar
     5    19    20   ar
     6    20    14    1
     7    14    15    2
     8    14    16    2
     9    14    12    1
    10    12    11    1
    11    11    10    1
    12    10     1    1
    13     1     2    1
    14     2     3    1
    15     3     4    1
    16     4     5    1
    17     5    25    1
    18    25    26    1
    19    26    27    1
    20    27    28   ar
    21    28    29   ar
    22    29    30   ar
    23    30    33    1
    24    33    34    1
    25    33    35    1
    26    33    36    1
    27    30    31   ar
    28    31    32   ar
    29     5     6    1
    30     6     7    1
    31     7     8    1
    32     7     9    1
    33    20    21   ar
    34    21    22   ar
    35    22    17   ar
    36     8     1    1
    37     9     3    1
    38    32    27   ar
    39    12    13    1
@<TRIPOS>MOLECULE
*****
 36 39 0 0 0
SMALL
GASTEIGER

@<TRIPOS>ATOM
      1 N         140.8711  143.9382  159.8486 N.3     1  UNL1       -0.2673
      2 C         140.0286  142.7206  159.6090 C.3     1  UNL1        0.1035
      3 C         140.5970  141.3547  159.8566 C.3     1  UNL1        0.1470
      4 C         141.1654  139.9888  160.1041 C.3     1  UNL1        0.1035
      5 N         142.5763  139.8406  160.5913 N.3     1  UNL1       -0.2682
      6 C         143.4188  141.0583  160.8309 C.3     1  UNL1        0.1035
      7 C         142.8504  142.4242  160.5833 C.3     1  UNL1        0.1470
      8 C         142.2820  143.7900  160.3358 C.3     1  UNL1        0.1035
      9 O         142.0079  141.2065  160.3437 O.3     1  UNL1       -0.3530
     10 C         140.3026  145.3041  159.6011 C.3     1  UNL1        0.0913
     11 C         139.9638  146.1965  160.7582 C.3     1  UNL1        0.1087
     12 N         139.1029  145.6832  161.8742 N.3     1  UNL1       -0.1780
     13 H         138.6577  146.4960  162.3004 H       1  UNL1        0.1488
     14 S         139.7156  144.8902  162.9902 S.O2    1  UNL1        0.0603
     15 O         138.4867  144.0327  163.0557 O.2     1  UNL1       -0.1530
     16 O         140.9446  145.7476  162.9248 O.2     1  UNL1       -0.1530
     17 C         141.5539  142.5110  166.3384 C.ar    1  UNL1        0.0685
     18 C         142.3679  142.8512  165.1253 C.ar    1  UNL1        0.0116
     19 C         141.7551  143.6443  164.0092 C.ar    1  UNL1        0.0206
     20 C         140.3284  144.0971  164.1063 C.ar    1  UNL1        0.1220
     21 C         139.5144  143.7569  165.3195 C.ar    1  UNL1        0.0206
     22 C         140.1272  142.9639  166.4355 C.ar    1  UNL1        0.0116
     23 N         142.7795  140.9249  168.5705 N.1     1  UNL1       -0.1908
     24 C         142.1667  141.7180  167.4545 C.1     1  UNL1        0.1004
     25 C         143.1448  138.4748  160.8388 C.3     1  UNL1        0.0769
     26 C         143.2439  137.9461  162.2391 C.3     1  UNL1        0.0437
     27 C         142.0748  138.0669  163.1710 C.ar    1  UNL1       -0.0208
     28 C         140.7494  137.4755  162.7919 C.ar    1  UNL1       -0.0043
     29 C         139.5802  137.5963  163.7238 C.ar    1  UNL1        0.0035
     30 C         139.7363  138.3085  165.0346 C.ar    1  UNL1        0.0714
     31 C         141.0617  138.9000  165.4136 C.ar    1  UNL1        0.0035
     32 C         142.2309  138.7792  164.4818 C.ar    1  UNL1       -0.0043
     33 C         138.5671  138.4293  165.9665 C.3     1  UNL1        0.4186
     34 F         137.3979  138.5501  166.8983 F       1  UNL1       -0.1659
     35 F         138.8695  139.8860  166.1571 F       1  UNL1       -0.1659
     36 F         138.2646  136.9726  165.7758 F       1  UNL1       -0.1659
@<TRIPOS>BOND
     1    23    24    3
     2    24    17    1
     3    17    18   ar
     4    18    19   ar
     5    19    20   ar
     6    20    14    1
     7    14    15    2
     8    14    16    2
     9    14    12    1
    10    12    11    1
    11    11    10    1
    12    10     1    1
    13     1     2    1
    14     2     3    1
    15     3     4    1
    16     4     5    1
    17     5    25    1
    18    25    26    1
    19    26    27    1
    20    27    28   ar
    21    28    29   ar
    22    29    30   ar
    23    30    33    1
    24    33    34    1
    25    33    35    1
    26    33    36    1
    27    30    31   ar
    28    31    32   ar
    29     5     6    1
    30     6     7    1
    31     7     8    1
    32     7     9    1
    33    20    21   ar
    34    21    22   ar
    35    22    17   ar
    36     8     1    1
    37     9     3    1
    38    32    27   ar
    39    12    13    1
@<TRIPOS>MOLECULE
*****
 36 39 0 0 0
SMALL
GASTEIGER

@<TRIPOS>ATOM
      1 N         139.4095  143.7252  161.0272 N.3     1  UNL1       -0.2673
      2 C         140.2214  142.6766  160.3263 C.3     1  UNL1        0.1035
      3 C         139.9518  141.2235  160.5830 C.3     1  UNL1        0.1470
      4 C         139.6822  139.7704  160.8396 C.3     1  UNL1        0.1035
      5 N         138.6007  139.3659  161.7971 N.3     1  UNL1       -0.2682
      6 C         137.7887  140.4146  162.4979 C.3     1  UNL1        0.1035
      7 C         138.0583  141.8677  162.2413 C.3     1  UNL1        0.1470
      8 C         138.3280  143.3207  161.9846 C.3     1  UNL1        0.1035
      9 O         138.8702  140.8191  161.5404 O.3     1  UNL1       -0.3530
     10 C         139.6791  145.1783  160.7705 C.3     1  UNL1        0.0913
     11 C         139.7245  146.1463  161.9155 C.3     1  UNL1        0.1087
     12 N         140.9592  146.2505  162.7610 N.3     1  UNL1       -0.1780
     13 H         141.6112  146.8517  162.2572 H       1  UNL1        0.1488
     14 S         141.7160  145.0119  163.1391 S.O2    1  UNL1        0.0603
     15 O         142.6673  145.2465  162.0034 O.2     1  UNL1       -0.1530
     16 O         140.7646  144.7773  164.2748 O.2     1  UNL1       -0.1530
     17 C         143.9865  141.2960  164.2735 C.ar    1  UNL1        0.0685
     18 C         142.5680  141.1920  163.7969 C.ar    1  UNL1        0.0116
     19 C         141.8111  142.4307  163.4188 C.ar    1  UNL1        0.0206
     20 C         142.4728  143.7733  163.5172 C.ar    1  UNL1        0.1220
     21 C         143.8913  143.8772  163.9938 C.ar    1  UNL1        0.0206
     22 C         144.6481  142.6386  164.3719 C.ar    1  UNL1        0.0116
     23 N         145.5001  138.8187  165.0298 N.1     1  UNL1       -0.1908
     24 C         144.7433  140.0574  164.6516 C.1     1  UNL1        0.1004
     25 C         138.3310  137.9129  162.0537 C.3     1  UNL1        0.0769
     26 C         138.4992  137.3513  163.4345 C.3     1  UNL1        0.0437
     27 C         139.4235  138.0197  164.4085 C.ar    1  UNL1       -0.0208
     28 C         138.8813  139.0019  165.4041 C.ar    1  UNL1       -0.0043
     29 C         139.8057  139.6703  166.3782 C.ar    1  UNL1        0.0035
     30 C         141.2723  139.3564  166.3567 C.ar    1  UNL1        0.0714
     31 C         141.8145  138.3741  165.3611 C.ar    1  UNL1        0.0035
     32 C         140.8902  137.7058  164.3870 C.ar    1  UNL1       -0.0043
     33 C         142.1967  140.0247  167.3307 C.3     1  UNL1        0.4186
     34 F         143.1210  140.6930  168.3048 F       1  UNL1       -0.1659
     35 F         141.6223  141.3598  166.9598 F       1  UNL1       -0.1659
     36 F         142.7710  138.6897  167.7017 F       1  UNL1       -0.1659
@<TRIPOS>BOND
     1    23    24    3
     2    24    17    1
     3    17    18   ar
     4    18    19   ar
     5    19    20   ar
     6    20    14    1
     7    14    15    2
     8    14    16    2
     9    14    12    1
    10    12    11    1
    11    11    10    1
    12    10     1    1
    13     1     2    1
    14     2     3    1
    15     3     4    1
    16     4     5    1
    17     5    25    1
    18    25    26    1
    19    26    27    1
    20    27    28   ar
    21    28    29   ar
    22    29    30   ar
    23    30    33    1
    24    33    34    1
    25    33    35    1
    26    33    36    1
    27    30    31   ar
    28    31    32   ar
    29     5     6    1
    30     6     7    1
    31     7     8    1
    32     7     9    1
    33    20    21   ar
    34    21    22   ar
    35    22    17   ar
    36     8     1    1
    37     9     3    1
    38    32    27   ar
    39    12    13    1
@<TRIPOS>MOLECULE
*****
 36 39 0 0 0
SMALL
GASTEIGER

@<TRIPOS>ATOM
      1 N         144.4756  141.2705  162.1269 N.3     1  UNL1       -0.2673
      2 C         143.8721  139.9273  162.4125 C.3     1  UNL1        0.1035
      3 C         142.7020  139.4444  161.6078 C.3     1  UNL1        0.1470
      4 C         141.5318  138.9614  160.8030 C.3     1  UNL1        0.1035
      5 N         140.9652  139.8217  159.7127 N.3     1  UNL1       -0.2682
      6 C         141.5688  141.1649  159.4271 C.3     1  UNL1        0.1035
      7 C         142.7388  141.6478  160.2318 C.3     1  UNL1        0.1470
      8 C         143.9089  142.1307  161.0365 C.3     1  UNL1        0.1035
      9 O         142.1354  140.3047  160.5174 O.3     1  UNL1       -0.3530
     10 C         145.6457  141.7535  162.9316 C.3     1  UNL1        0.0913
     11 C         145.4530  142.1707  164.3594 C.3     1  UNL1        0.1087
     12 N         144.2799  143.0248  164.7395 N.3     1  UNL1       -0.1780
     13 H         144.6580  143.8786  165.1499 H       1  UNL1        0.1488
     14 S         143.2511  142.5025  165.6979 S.O2    1  UNL1        0.0603
     15 O         144.0588  143.0239  166.8492 O.2     1  UNL1       -0.1530
     16 O         142.4433  141.9811  164.5465 O.2     1  UNL1       -0.1530
     17 C         140.1644  140.9355  168.5731 C.ar    1  UNL1        0.0685
     18 C         141.4733  141.4563  169.0883 C.ar    1  UNL1        0.0116
     19 C         142.5022  141.9786  168.1299 C.ar    1  UNL1        0.0206
     20 C         142.2222  141.9802  166.6563 C.ar    1  UNL1        0.1220
     21 C         140.9132  141.4594  166.1410 C.ar    1  UNL1        0.0206
     22 C         139.8843  140.9371  167.0994 C.ar    1  UNL1        0.0116
     23 N         138.1066  139.8909  170.4900 N.1     1  UNL1       -0.1908
     24 C         139.1355  140.4132  169.5315 C.1     1  UNL1        0.1004
     25 C         139.7951  139.3388  158.9080 C.3     1  UNL1        0.0769
     26 C         138.4024  139.7406  159.2939 C.3     1  UNL1        0.0437
     27 C         138.1819  140.6518  160.4648 C.ar    1  UNL1       -0.0208
     28 C         137.7977  140.0807  161.7975 C.ar    1  UNL1       -0.0043
     29 C         137.5772  140.9919  162.9686 C.ar    1  UNL1        0.0035
     30 C         137.7411  142.4741  162.8068 C.ar    1  UNL1        0.0714
     31 C         138.1254  143.0452  161.4740 C.ar    1  UNL1        0.0035
     32 C         138.3458  142.1340  160.3030 C.ar    1  UNL1       -0.0043
     33 C         137.5207  143.3853  163.9777 C.3     1  UNL1        0.4186
     34 F         137.3002  144.2965  165.1487 F       1  UNL1       -0.1659
     35 F         137.6886  142.2244  164.9127 F       1  UNL1       -0.1659
     36 F         137.3528  144.5462  163.0428 F       1  UNL1       -0.1659
@<TRIPOS>BOND
     1    23    24    3
     2    24    17    1
     3    17    18   ar
     4    18    19   ar
     5    19    20   ar
     6    20    14    1
     7    14    15    2
     8    14    16    2
     9    14    12    1
    10    12    11    1
    11    11    10    1
    12    10     1    1
    13     1     2    1
    14     2     3    1
    15     3     4    1
    16     4     5    1
    17     5    25    1
    18    25    26    1
    19    26    27    1
    20    27    28   ar
    21    28    29   ar
    22    29    30   ar
    23    30    33    1
    24    33    34    1
    25    33    35    1
    26    33    36    1
    27    30    31   ar
    28    31    32   ar
    29     5     6    1
    30     6     7    1
    31     7     8    1
    32     7     9    1
    33    20    21   ar
    34    21    22   ar
    35    22    17   ar
    36     8     1    1
    37     9     3    1
    38    32    27   ar
    39    12    13    1
@<TRIPOS>MOLECULE
*****
 36 39 0 0 0
SMALL
GASTEIGER

@<TRIPOS>ATOM
      1 N         138.5041  140.6243  159.9423 N.3     1  UNL1       -0.2673
      2 C         139.3597  139.4078  160.1379 C.3     1  UNL1        0.1035
      3 C         139.4704  138.7793  161.4953 C.3     1  UNL1        0.1470
      4 C         139.5812  138.1506  162.8528 C.3     1  UNL1        0.1035
      5 N         138.8364  138.7384  164.0145 N.3     1  UNL1       -0.2682
      6 C         137.9808  139.9549  163.8189 C.3     1  UNL1        0.1035
      7 C         137.8701  140.5835  162.4615 C.3     1  UNL1        0.1470
      8 C         137.7593  141.2121  161.1041 C.3     1  UNL1        0.1035
      9 O         138.7256  139.3671  162.6571 O.3     1  UNL1       -0.3530
     10 C         138.3933  141.2529  158.5849 C.3     1  UNL1        0.0913
     11 C         138.5111  142.7408  158.4356 C.3     1  UNL1        0.1087
     12 N         139.8411  143.4100  158.6184 N.3     1  UNL1       -0.1780
     13 H         140.4767  142.9927  157.9385 H       1  UNL1        0.1488
     14 S         140.5323  143.3539  159.9485 S.O2    1  UNL1        0.0603
     15 O         139.4945  144.2698  160.5264 O.2     1  UNL1       -0.1530
     16 O         141.5701  142.4380  159.3705 O.2     1  UNL1       -0.1530
     17 C         142.6060  143.1857  163.9386 C.ar    1  UNL1        0.0685
     18 C         142.4670  144.4951  163.2203 C.ar    1  UNL1        0.0116
     19 C         141.7757  144.5512  161.8902 C.ar    1  UNL1        0.0206
     20 C         141.2235  143.2979  161.2785 C.ar    1  UNL1        0.1220
     21 C         141.3626  141.9884  161.9969 C.ar    1  UNL1        0.0206
     22 C         142.0538  141.9323  163.3269 C.ar    1  UNL1        0.0116
     23 N         143.9885  143.0736  166.5987 N.1     1  UNL1       -0.1908
     24 C         143.2972  143.1296  165.2687 C.1     1  UNL1        0.1004
     25 C         138.9472  138.1098  165.3719 C.3     1  UNL1        0.0769
     26 C         138.3091  138.7696  166.5584 C.3     1  UNL1        0.0437
     27 C         139.0477  139.8368  167.3104 C.ar    1  UNL1       -0.0208
     28 C         139.8428  140.8666  166.5639 C.ar    1  UNL1       -0.0043
     29 C         140.5814  141.9339  167.3159 C.ar    1  UNL1        0.0035
     30 C         140.5251  141.9711  168.8144 C.ar    1  UNL1        0.0714
     31 C         139.7300  140.9412  169.5609 C.ar    1  UNL1        0.0035
     32 C         138.9913  139.8740  168.8089 C.ar    1  UNL1       -0.0043
     33 C         141.2637  143.0383  169.5664 C.3     1  UNL1        0.4186
     34 F         142.0023  144.1054  170.3184 F       1  UNL1       -0.1659
     35 F         140.1702  144.0160  169.2531 F       1  UNL1       -0.1659
     36 F         142.3572  142.0606  169.8798 F       1  UNL1       -0.1659
@<TRIPOS>BOND
     1    23    24    3
     2    24    17    1
     3    17    18   ar
     4    18    19   ar
     5    19    20   ar
     6    20    14    1
     7    14    15    2
     8    14    16    2
     9    14    12    1
    10    12    11    1
    11    11    10    1
    12    10     1    1
    13     1     2    1
    14     2     3    1
    15     3     4    1
    16     4     5    1
    17     5    25    1
    18    25    26    1
    19    26    27    1
    20    27    28   ar
    21    28    29   ar
    22    29    30   ar
    23    30    33    1
    24    33    34    1
    25    33    35    1
    26    33    36    1
    27    30    31   ar
    28    31    32   ar
    29     5     6    1
    30     6     7    1
    31     7     8    1
    32     7     9    1
    33    20    21   ar
    34    21    22   ar
    35    22    17   ar
    36     8     1    1
    37     9     3    1
    38    32    27   ar
    39    12    13    1
