@<TRIPOS>MOLECULE
*****
 30 32 0 0 0
SMALL
GASTEIGER

@<TRIPOS>ATOM
      1 C         142.0377  140.4457  168.6260 C.3     1  UNL1        0.0926
      2 C         142.5867  140.0913  169.9762 C.3     1  UNL1        0.0887
      3 N         143.6175  141.1179  170.3415 N.3     1  UNL1       -0.2958
      4 C         143.7057  142.1068  169.2170 C.3     1  UNL1        0.0747
      5 C         142.7293  141.6913  168.1568 C.3     1  UNL1        0.0573
      6 H         144.5222  140.6668  170.4776 H       1  UNL1        0.1233
      7 C         142.4871  142.3976  166.8558 C.ar    1  UNL1       -0.0195
      8 C         143.6449  142.7700  165.9778 C.ar    1  UNL1       -0.0042
      9 C         143.4028  143.4762  164.6768 C.ar    1  UNL1        0.0035
     10 C         142.0028  143.8100  164.2537 C.ar    1  UNL1        0.0714
     11 C         140.8451  143.4375  165.1318 C.ar    1  UNL1        0.0035
     12 C         141.0873  142.7313  166.4327 C.ar    1  UNL1       -0.0042
     13 C         141.7607  144.5162  162.9528 C.3     1  UNL1        0.4186
     14 F         141.5185  145.2225  161.6518 F       1  UNL1       -0.1659
     15 F         141.5375  143.1956  162.2774 F       1  UNL1       -0.1659
     16 F         141.9839  145.8369  163.6282 F       1  UNL1       -0.1659
     17 C         139.5353  139.8743  168.2241 C.2     1  UNL1        0.2269
     18 O         139.1434  140.8192  169.3211 O.2     1  UNL1       -0.2747
     19 N         140.9824  139.6876  167.8765 N.am    1  UNL1       -0.3040
     20 H         141.2397  139.0674  167.1564 H       1  UNL1        0.1494
     21 C         138.4801  139.1162  167.4746 C.3     1  UNL1        0.1113
     22 C         138.5250  139.0498  162.9753 C.ar    1  UNL1        0.0479
     23 C         138.1883  140.3173  163.7033 C.ar    1  UNL1        0.0142
     24 C         138.1733  140.3394  165.2031 C.ar    1  UNL1       -0.0025
     25 C         138.4951  139.0941  165.9748 C.ar    1  UNL1       -0.0130
     26 C         138.8318  137.8266  165.2468 C.ar    1  UNL1       -0.0025
     27 C         138.8468  137.8044  163.7470 C.ar    1  UNL1        0.0142
     28 C         137.5048  139.7911  160.7039 C.3     1  UNL1        0.1122
     29 N         138.5400  139.0276  161.4755 N.pl3   1  UNL1       -0.3041
     30 C         139.5901  138.2420  160.7475 C.3     1  UNL1        0.1122
@<TRIPOS>BOND
     1    28    29    1
     2    29    30    1
     3    29    22    1
     4    22    23   ar
     5    23    24   ar
     6    24    25   ar
     7    25    21    1
     8    21    17    1
     9    17    18    2
    10    17    19   am
    11     1    19    1
    12     1     2    1
    13     2     3    1
    14     3     4    1
    15     4     5    1
    16     5     7    1
    17     7     8   ar
    18     8     9   ar
    19     9    10   ar
    20    10    13    1
    21    13    14    1
    22    13    15    1
    23    13    16    1
    24    10    11   ar
    25    11    12   ar
    26    25    26   ar
    27    26    27   ar
    28    27    22   ar
    29     5     1    1
    30    12     7   ar
    31    19    20    1
    32     3     6    1
@<TRIPOS>MOLECULE
*****
 30 32 0 0 0
SMALL
GASTEIGER

@<TRIPOS>ATOM
      1 C         138.3909  139.0832  166.5090 C.3     1  UNL1        0.0926
      2 C         137.3964  138.6436  167.5424 C.3     1  UNL1        0.0887
      3 N         137.0686  137.2024  167.2867 N.3     1  UNL1       -0.2958
      4 C         137.8605  136.7513  166.0952 C.3     1  UNL1        0.0747
      5 C         138.6777  137.9137  165.6146 C.3     1  UNL1        0.0573
      6 H         136.0713  137.1026  167.0975 H       1  UNL1        0.1233
      7 C         139.6168  137.9076  164.4450 C.ar    1  UNL1       -0.0195
      8 C         141.0993  137.8972  164.6736 C.ar    1  UNL1       -0.0042
      9 C         142.0383  137.8911  163.5040 C.ar    1  UNL1        0.0035
     10 C         141.4951  137.8954  162.1058 C.ar    1  UNL1        0.0714
     11 C         140.0126  137.9057  161.8773 C.ar    1  UNL1        0.0035
     12 C         139.0735  137.9119  163.0469 C.ar    1  UNL1       -0.0042
     13 C         142.4342  137.8892  160.9361 C.3     1  UNL1        0.4186
     14 F         143.3733  137.8831  159.7666 F       1  UNL1       -0.1659
     15 F         141.2782  138.1134  160.0069 F       1  UNL1       -0.1659
     16 F         143.5902  137.6651  161.8655 F       1  UNL1       -0.1659
     17 C         140.0385  140.8986  167.3691 C.2     1  UNL1        0.2269
     18 O         140.4822  139.9764  168.4657 O.2     1  UNL1       -0.2747
     19 N         138.9929  140.4521  166.3908 N.am    1  UNL1       -0.3040
     20 H         138.7016  141.0574  165.6711 H       1  UNL1        0.1494
     21 C         140.6404  142.2674  167.2509 C.3     1  UNL1        0.1113
     22 C         140.6300  144.3951  163.2856 C.ar    1  UNL1        0.0479
     23 C         139.5371  144.6557  164.2794 C.ar    1  UNL1        0.0142
     24 C         139.5406  143.9464  165.6012 C.ar    1  UNL1       -0.0025
     25 C         140.6369  142.9767  165.9291 C.ar    1  UNL1       -0.0130
     26 C         141.7299  142.7161  164.9353 C.ar    1  UNL1       -0.0025
     27 C         141.7264  143.4253  163.6136 C.ar    1  UNL1        0.0142
     28 C         141.5259  144.6353  160.8588 C.3     1  UNL1        0.1122
     29 N         140.6266  145.1043  161.9639 N.pl3   1  UNL1       -0.3041
     30 C         139.7238  146.2825  161.7472 C.3     1  UNL1        0.1122
@<TRIPOS>BOND
     1    28    29    1
     2    29    30    1
     3    29    22    1
     4    22    23   ar
     5    23    24   ar
     6    24    25   ar
     7    25    21    1
     8    21    17    1
     9    17    18    2
    10    17    19   am
    11     1    19    1
    12     1     2    1
    13     2     3    1
    14     3     4    1
    15     4     5    1
    16     5     7    1
    17     7     8   ar
    18     8     9   ar
    19     9    10   ar
    20    10    13    1
    21    13    14    1
    22    13    15    1
    23    13    16    1
    24    10    11   ar
    25    11    12   ar
    26    25    26   ar
    27    26    27   ar
    28    27    22   ar
    29     5     1    1
    30    12     7   ar
    31    19    20    1
    32     3     6    1
@<TRIPOS>MOLECULE
*****
 30 32 0 0 0
SMALL
GASTEIGER

@<TRIPOS>ATOM
      1 C         140.5336  140.3185  168.4148 C.3     1  UNL1        0.0926
      2 C         140.2261  139.8380  169.8021 C.3     1  UNL1        0.0887
      3 N         141.5156  139.4203  170.4445 N.3     1  UNL1       -0.2958
      4 C         142.6201  139.6426  169.4542 C.3     1  UNL1        0.0747
      5 C         142.0132  140.1977  168.1998 C.3     1  UNL1        0.0573
      6 H         141.4719  138.4335  170.6986 H       1  UNL1        0.1233
      7 C         142.7556  140.5672  166.9499 C.ar    1  UNL1       -0.0195
      8 C         143.0109  142.0099  166.6279 C.ar    1  UNL1       -0.0042
      9 C         143.7533  142.3793  165.3780 C.ar    1  UNL1        0.0035
     10 C         144.2404  141.3062  164.4500 C.ar    1  UNL1        0.0714
     11 C         143.9852  139.8636  164.7720 C.ar    1  UNL1        0.0035
     12 C         143.2428  139.4942  166.0219 C.ar    1  UNL1       -0.0042
     13 C         144.9828  141.6757  163.2000 C.3     1  UNL1        0.4186
     14 F         145.7251  142.0451  161.9501 F       1  UNL1       -0.1659
     15 F         146.2854  141.4141  163.8964 F       1  UNL1       -0.1659
     16 F         143.6802  141.9372  162.5037 F       1  UNL1       -0.1659
     17 C         139.2006  140.0121  166.2058 C.2     1  UNL1        0.2269
     18 O         139.8617  138.6828  165.9913 O.2     1  UNL1       -0.2747
     19 N         139.5366  140.8299  167.4175 N.am    1  UNL1       -0.3040
     20 H         139.1027  141.7024  167.5583 H       1  UNL1        0.1494
     21 C         138.2036  140.5236  165.2087 C.3     1  UNL1        0.1113
     22 C         139.3826  143.7474  162.2987 C.ar    1  UNL1        0.0479
     23 C         140.4366  142.8964  162.9428 C.ar    1  UNL1        0.0142
     24 C         140.0436  141.8217  163.9128 C.ar    1  UNL1       -0.0025
     25 C         138.5966  141.5982  164.2387 C.ar    1  UNL1       -0.0130
     26 C         137.5426  142.4492  163.5946 C.ar    1  UNL1       -0.0025
     27 C         137.9355  143.5238  162.6247 C.ar    1  UNL1        0.0142
     28 C         140.2011  144.4573  159.9374 C.3     1  UNL1        0.1122
     29 N         139.7755  144.8219  161.3288 N.pl3   1  UNL1       -0.3041
     30 C         139.7429  146.2612  161.7502 C.3     1  UNL1        0.1122
@<TRIPOS>BOND
     1    28    29    1
     2    29    30    1
     3    29    22    1
     4    22    23   ar
     5    23    24   ar
     6    24    25   ar
     7    25    21    1
     8    21    17    1
     9    17    18    2
    10    17    19   am
    11     1    19    1
    12     1     2    1
    13     2     3    1
    14     3     4    1
    15     4     5    1
    16     5     7    1
    17     7     8   ar
    18     8     9   ar
    19     9    10   ar
    20    10    13    1
    21    13    14    1
    22    13    15    1
    23    13    16    1
    24    10    11   ar
    25    11    12   ar
    26    25    26   ar
    27    26    27   ar
    28    27    22   ar
    29     5     1    1
    30    12     7   ar
    31    19    20    1
    32     3     6    1
@<TRIPOS>MOLECULE
*****
 30 32 0 0 0
SMALL
GASTEIGER

@<TRIPOS>ATOM
      1 C         139.7415  139.4590  160.4724 C.3     1  UNL1        0.0926
      2 C         139.5414  138.7915  159.1440 C.3     1  UNL1        0.0887
      3 N         138.5711  139.6168  158.3520 N.3     1  UNL1       -0.2958
      4 C         138.1715  140.7944  159.1909 C.3     1  UNL1        0.0747
      5 C         138.8948  140.6968  160.5013 C.3     1  UNL1        0.0573
      6 H         137.7481  139.0592  158.1236 H       1  UNL1        0.1233
      7 C         138.7899  141.6668  161.6406 C.ar    1  UNL1       -0.0195
      8 C         138.1065  141.2590  162.9122 C.ar    1  UNL1       -0.0042
      9 C         138.0015  142.2290  164.0515 C.ar    1  UNL1        0.0035
     10 C         138.5799  143.6067  163.9194 C.ar    1  UNL1        0.0714
     11 C         139.2632  144.0144  162.6479 C.ar    1  UNL1        0.0035
     12 C         139.3681  143.0444  161.5085 C.ar    1  UNL1       -0.0042
     13 C         138.4749  144.5767  165.0587 C.3     1  UNL1        0.4186
     14 F         138.3701  145.5467  166.1980 F       1  UNL1       -0.1659
     15 F         137.0066  144.2900  165.1676 F       1  UNL1       -0.1659
     16 F         139.9433  144.8635  164.9499 F       1  UNL1       -0.1659
     17 C         140.0848  138.0627  162.6363 C.2     1  UNL1        0.2269
     18 O         138.6473  137.6369  162.5896 O.2     1  UNL1       -0.2747
     19 N         140.6319  138.9737  161.5777 N.am    1  UNL1       -0.3040
     20 H         141.5754  139.2532  161.6083 H       1  UNL1        0.1494
     21 C         140.9753  137.5775  163.7416 C.3     1  UNL1        0.1113
     22 C         141.3952  139.9911  167.5163 C.ar    1  UNL1        0.0479
     23 C         142.5847  139.2762  166.9470 C.ar    1  UNL1        0.0142
     24 C         142.4447  138.4717  165.6887 C.ar    1  UNL1       -0.0025
     25 C         141.1153  138.3820  164.9998 C.ar    1  UNL1       -0.0130
     26 C         139.9258  139.0969  165.5692 C.ar    1  UNL1       -0.0025
     27 C         140.0657  139.9014  166.8274 C.ar    1  UNL1        0.0142
     28 C         142.8896  141.2609  169.2204 C.3     1  UNL1        0.1122
     29 N         141.5351  140.7956  168.7745 N.pl3   1  UNL1       -0.3041
     30 C         140.3206  141.1348  169.5869 C.3     1  UNL1        0.1122
@<TRIPOS>BOND
     1    28    29    1
     2    29    30    1
     3    29    22    1
     4    22    23   ar
     5    23    24   ar
     6    24    25   ar
     7    25    21    1
     8    21    17    1
     9    17    18    2
    10    17    19   am
    11     1    19    1
    12     1     2    1
    13     2     3    1
    14     3     4    1
    15     4     5    1
    16     5     7    1
    17     7     8   ar
    18     8     9   ar
    19     9    10   ar
    20    10    13    1
    21    13    14    1
    22    13    15    1
    23    13    16    1
    24    10    11   ar
    25    11    12   ar
    26    25    26   ar
    27    26    27   ar
    28    27    22   ar
    29     5     1    1
    30    12     7   ar
    31    19    20    1
    32     3     6    1
@<TRIPOS>MOLECULE
*****
 30 32 0 0 0
SMALL
GASTEIGER

@<TRIPOS>ATOM
      1 C         143.3714  139.6466  162.0005 C.3     1  UNL1        0.0926
      2 C         144.1237  139.5191  160.7090 C.3     1  UNL1        0.0887
      3 N         143.3706  138.5691  159.8257 N.3     1  UNL1       -0.2958
      4 C         142.1528  138.1094  160.5713 C.3     1  UNL1        0.0747
      5 C         142.1533  138.7753  161.9153 C.3     1  UNL1        0.0573
      6 H         143.9594  137.7682  159.5972 H       1  UNL1        0.1233
      7 C         141.1176  138.6007  162.9862 C.ar    1  UNL1       -0.0195
      8 C         141.1232  137.3680  163.8410 C.ar    1  UNL1       -0.0042
      9 C         140.0875  137.1933  164.9118 C.ar    1  UNL1        0.0035
     10 C         139.0462  138.2512  165.1280 C.ar    1  UNL1        0.0714
     11 C         139.0407  139.4838  164.2732 C.ar    1  UNL1        0.0035
     12 C         140.0764  139.6585  163.2024 C.ar    1  UNL1       -0.0042
     13 C         138.0105  138.0765  166.1989 C.3     1  UNL1        0.4186
     14 F         136.9748  137.9019  167.2697 F       1  UNL1       -0.1659
     15 F         138.0649  136.5896  166.0089 F       1  UNL1       -0.1659
     16 F         137.9561  139.5635  166.3888 F       1  UNL1       -0.1659
     17 C         143.1136  141.8288  163.3867 C.2     1  UNL1        0.2269
     18 O         142.0633  142.3119  162.4309 O.2     1  UNL1       -0.2747
     19 N         143.7676  140.4962  163.1715 N.am    1  UNL1       -0.3040
     20 H         144.4570  140.1791  163.7988 H       1  UNL1        0.1494
     21 C         143.5099  142.6783  164.5577 C.3     1  UNL1        0.1113
     22 C         141.4672  142.1290  168.5296 C.ar    1  UNL1        0.0479
     23 C         142.9490  142.3554  168.4733 C.ar    1  UNL1        0.0142
     24 C         143.6299  142.5385  167.1492 C.ar    1  UNL1       -0.0025
     25 C         142.8290  142.4952  165.8817 C.ar    1  UNL1       -0.0130
     26 C         141.3472  142.2688  165.9381 C.ar    1  UNL1       -0.0025
     27 C         140.6664  142.0857  167.2620 C.ar    1  UNL1        0.0142
     28 C         140.9686  140.6697  170.6204 C.3     1  UNL1        0.1122
     29 N         140.7863  141.9459  169.8536 N.pl3   1  UNL1       -0.3041
     30 C         139.9232  143.0389  170.4106 C.3     1  UNL1        0.1122
@<TRIPOS>BOND
     1    28    29    1
     2    29    30    1
     3    29    22    1
     4    22    23   ar
     5    23    24   ar
     6    24    25   ar
     7    25    21    1
     8    21    17    1
     9    17    18    2
    10    17    19   am
    11     1    19    1
    12     1     2    1
    13     2     3    1
    14     3     4    1
    15     4     5    1
    16     5     7    1
    17     7     8   ar
    18     8     9   ar
    19     9    10   ar
    20    10    13    1
    21    13    14    1
    22    13    15    1
    23    13    16    1
    24    10    11   ar
    25    11    12   ar
    26    25    26   ar
    27    26    27   ar
    28    27    22   ar
    29     5     1    1
    30    12     7   ar
    31    19    20    1
    32     3     6    1
@<TRIPOS>MOLECULE
*****
 30 32 0 0 0
SMALL
GASTEIGER

@<TRIPOS>ATOM
      1 C         138.3937  138.9381  166.7749 C.3     1  UNL1        0.0926
      2 C         137.3367  138.4948  167.7425 C.3     1  UNL1        0.0887
      3 N         136.8889  137.1203  167.3423 N.3     1  UNL1       -0.2958
      4 C         137.6692  136.7141  166.1273 C.3     1  UNL1        0.0747
      5 C         138.5992  137.8376  165.7766 C.3     1  UNL1        0.0573
      6 H         135.8921  137.1302  167.1262 H       1  UNL1        0.1233
      7 C         139.5651  137.8571  164.6292 C.ar    1  UNL1       -0.0195
      8 C         141.0394  137.9457  164.8913 C.ar    1  UNL1       -0.0042
      9 C         142.0052  137.9651  163.7439 C.ar    1  UNL1        0.0035
     10 C         141.4969  137.8960  162.3343 C.ar    1  UNL1        0.0714
     11 C         140.0227  137.8074  162.0722 C.ar    1  UNL1        0.0035
     12 C         139.0568  137.7879  163.2197 C.ar    1  UNL1       -0.0042
     13 C         142.4628  137.9155  161.1868 C.3     1  UNL1        0.4186
     14 F         143.4286  137.9349  160.0393 F       1  UNL1       -0.1659
     15 F         143.5943  137.6484  162.1347 F       1  UNL1       -0.1659
     16 F         141.3313  138.1825  160.2389 F       1  UNL1       -0.1659
     17 C         139.8868  140.6598  168.0225 C.2     1  UNL1        0.2269
     18 O         139.9313  139.7549  169.2180 O.2     1  UNL1       -0.2747
     19 N         139.1180  140.2515  166.8010 N.am    1  UNL1       -0.3040
     20 H         139.0888  140.8454  166.0164 H       1  UNL1        0.1494
     21 C         140.6110  141.9731  168.0486 C.3     1  UNL1        0.1113
     22 C         143.1785  143.1963  164.5611 C.ar    1  UNL1        0.0479
     23 C         141.7100  143.5019  164.5549 C.ar    1  UNL1        0.0142
     24 C         140.8541  143.0941  165.7174 C.ar    1  UNL1       -0.0025
     25 C         141.4668  142.3808  166.8861 C.ar    1  UNL1       -0.0130
     26 C         142.9354  142.0753  166.8923 C.ar    1  UNL1       -0.0025
     27 C         143.7912  142.4830  165.7298 C.ar    1  UNL1        0.0142
     28 C         144.0339  145.0290  162.9304 C.3     1  UNL1        0.1122
     29 N         144.0343  143.6040  163.3986 N.pl3   1  UNL1       -0.3041
     30 C         144.8905  142.5867  162.7044 C.3     1  UNL1        0.1122
@<TRIPOS>BOND
     1    28    29    1
     2    29    30    1
     3    29    22    1
     4    22    23   ar
     5    23    24   ar
     6    24    25   ar
     7    25    21    1
     8    21    17    1
     9    17    18    2
    10    17    19   am
    11     1    19    1
    12     1     2    1
    13     2     3    1
    14     3     4    1
    15     4     5    1
    16     5     7    1
    17     7     8   ar
    18     8     9   ar
    19     9    10   ar
    20    10    13    1
    21    13    14    1
    22    13    15    1
    23    13    16    1
    24    10    11   ar
    25    11    12   ar
    26    25    26   ar
    27    26    27   ar
    28    27    22   ar
    29     5     1    1
    30    12     7   ar
    31    19    20    1
    32     3     6    1
@<TRIPOS>MOLECULE
*****
 30 32 0 0 0
SMALL
GASTEIGER

@<TRIPOS>ATOM
      1 C         142.1443  139.9512  168.2845 C.3     1  UNL1        0.0926
      2 C         142.3549  139.2410  169.5889 C.3     1  UNL1        0.0887
      3 N         141.0830  139.3349  170.3785 N.3     1  UNL1       -0.2958
      4 C         140.0863  140.1032  169.5622 C.3     1  UNL1        0.0747
      5 C         140.7422  140.4841  168.2681 C.3     1  UNL1        0.0573
      6 H         141.2571  139.8200  171.2587 H       1  UNL1        0.1233
      7 C         140.1075  141.2614  167.1532 C.ar    1  UNL1       -0.0195
      8 C         140.4106  142.7214  166.9896 C.ar    1  UNL1       -0.0042
      9 C         139.7758  143.4987  165.8748 C.ar    1  UNL1        0.0035
     10 C         138.8380  142.8162  164.9236 C.ar    1  UNL1        0.0714
     11 C         138.5349  141.3563  165.0873 C.ar    1  UNL1        0.0035
     12 C         139.1697  140.5790  166.2021 C.ar    1  UNL1       -0.0042
     13 C         138.2032  143.5935  163.8088 C.3     1  UNL1        0.4186
     14 F         137.5684  144.3709  162.6940 F       1  UNL1       -0.1659
     15 F         139.0522  142.8595  162.8136 F       1  UNL1       -0.1659
     16 F         137.3542  144.3275  164.8040 F       1  UNL1       -0.1659
     17 C         143.0060  139.3256  165.9147 C.2     1  UNL1        0.2269
     18 O         141.8407  138.3982  165.7358 O.2     1  UNL1       -0.2747
     19 N         143.1578  140.1021  167.1890 N.am    1  UNL1       -0.3040
     20 H         143.9226  140.7108  167.3065 H       1  UNL1        0.1494
     21 C         144.0195  139.4765  164.8193 C.3     1  UNL1        0.1113
     22 C         143.1723  142.1859  161.3276 C.ar    1  UNL1        0.0479
     23 C         144.2272  141.1255  161.2154 C.ar    1  UNL1        0.0142
     24 C         144.5096  140.2224  162.3793 C.ar    1  UNL1       -0.0025
     25 C         143.7371  140.3797  163.6554 C.ar    1  UNL1       -0.0130
     26 C         142.6822  141.4401  163.7676 C.ar    1  UNL1       -0.0025
     27 C         142.3998  142.3432  162.6038 C.ar    1  UNL1        0.0142
     28 C         143.7021  142.9708  158.9084 C.3     1  UNL1        0.1122
     29 N         142.8898  143.0891  160.1638 N.pl3   1  UNL1       -0.3041
     30 C         141.7951  144.1105  160.2554 C.3     1  UNL1        0.1122
@<TRIPOS>BOND
     1    28    29    1
     2    29    30    1
     3    29    22    1
     4    22    23   ar
     5    23    24   ar
     6    24    25   ar
     7    25    21    1
     8    21    17    1
     9    17    18    2
    10    17    19   am
    11     1    19    1
    12     1     2    1
    13     2     3    1
    14     3     4    1
    15     4     5    1
    16     5     7    1
    17     7     8   ar
    18     8     9   ar
    19     9    10   ar
    20    10    13    1
    21    13    14    1
    22    13    15    1
    23    13    16    1
    24    10    11   ar
    25    11    12   ar
    26    25    26   ar
    27    26    27   ar
    28    27    22   ar
    29     5     1    1
    30    12     7   ar
    31    19    20    1
    32     3     6    1
@<TRIPOS>MOLECULE
*****
 30 32 0 0 0
SMALL
GASTEIGER

@<TRIPOS>ATOM
      1 C         141.7397  140.2634  167.2411 C.3     1  UNL1        0.0926
      2 C         142.4561  139.7691  168.4628 C.3     1  UNL1        0.0887
      3 N         143.0802  140.9507  169.1441 N.3     1  UNL1       -0.2958
      4 C         142.7495  142.1754  168.3434 C.3     1  UNL1        0.0747
      5 C         141.9210  141.7505  167.1673 C.3     1  UNL1        0.0573
      6 H         144.0919  140.8296  169.1895 H       1  UNL1        0.1233
      7 C         141.3706  142.6542  166.1042 C.ar    1  UNL1       -0.0195
      8 C         142.2551  143.1239  164.9874 C.ar    1  UNL1       -0.0042
      9 C         141.7046  144.0276  163.9242 C.ar    1  UNL1        0.0035
     10 C         140.2698  144.4616  163.9777 C.ar    1  UNL1        0.0714
     11 C         139.3853  143.9919  165.0945 C.ar    1  UNL1        0.0035
     12 C         139.9358  143.0882  166.1576 C.ar    1  UNL1       -0.0042
     13 C         139.7193  145.3653  162.9146 C.3     1  UNL1        0.4186
     14 F         139.1688  146.2690  161.8514 F       1  UNL1       -0.1659
     15 F         141.0915  145.9232  162.6783 F       1  UNL1       -0.1659
     16 F         138.3470  144.8074  163.1509 F       1  UNL1       -0.1659
     17 C         139.5064  139.1901  166.4595 C.2     1  UNL1        0.2269
     18 O         138.8004  139.8062  167.6309 O.2     1  UNL1       -0.2747
     19 N         140.9760  139.4187  166.2646 N.am    1  UNL1       -0.3040
     20 H         141.4393  139.0144  165.4958 H       1  UNL1        0.1494
     21 C         138.7428  138.3455  165.4831 C.3     1  UNL1        0.1113
     22 C         138.8036  139.3622  161.0998 C.ar    1  UNL1        0.0479
     23 C         139.1355  137.9709  161.5517 C.ar    1  UNL1        0.0142
     24 C         139.1152  137.6320  163.0128 C.ar    1  UNL1       -0.0025
     25 C         138.7631  138.6844  164.0220 C.ar    1  UNL1       -0.0130
     26 C         138.4312  140.0757  163.5701 C.ar    1  UNL1       -0.0025
     27 C         138.4514  140.4146  162.1091 C.ar    1  UNL1        0.0142
     28 C         138.1231  140.9318  159.1446 C.3     1  UNL1        0.1122
     29 N         138.8238  139.7011  159.6388 N.pl3   1  UNL1       -0.3041
     30 C         139.5447  138.8092  158.6719 C.3     1  UNL1        0.1122
@<TRIPOS>BOND
     1    28    29    1
     2    29    30    1
     3    29    22    1
     4    22    23   ar
     5    23    24   ar
     6    24    25   ar
     7    25    21    1
     8    21    17    1
     9    17    18    2
    10    17    19   am
    11     1    19    1
    12     1     2    1
    13     2     3    1
    14     3     4    1
    15     4     5    1
    16     5     7    1
    17     7     8   ar
    18     8     9   ar
    19     9    10   ar
    20    10    13    1
    21    13    14    1
    22    13    15    1
    23    13    16    1
    24    10    11   ar
    25    11    12   ar
    26    25    26   ar
    27    26    27   ar
    28    27    22   ar
    29     5     1    1
    30    12     7   ar
    31    19    20    1
    32     3     6    1
@<TRIPOS>MOLECULE
*****
 30 32 0 0 0
SMALL
GASTEIGER

@<TRIPOS>ATOM
      1 C         140.6494  141.5276  168.4980 C.3     1  UNL1        0.0926
      2 C         140.6888  141.6493  169.9926 C.3     1  UNL1        0.0887
      3 N         139.6885  140.6878  170.5625 N.3     1  UNL1       -0.2958
      4 C         139.0308  139.9718  169.4201 C.3     1  UNL1        0.0747
      5 C         139.6247  140.4909  168.1442 C.3     1  UNL1        0.0573
      6 H         138.9877  141.1964  171.1017 H       1  UNL1        0.1233
      7 C         139.2582  140.0505  166.7580 C.ar    1  UNL1       -0.0195
      8 C         139.3327  138.5987  166.3881 C.ar    1  UNL1       -0.0042
      9 C         138.9662  138.1582  165.0018 C.ar    1  UNL1        0.0035
     10 C         138.5252  139.1695  163.9855 C.ar    1  UNL1        0.0714
     11 C         138.4508  140.6213  164.3554 C.ar    1  UNL1        0.0035
     12 C         138.8173  141.0617  165.7417 C.ar    1  UNL1       -0.0042
     13 C         138.1587  138.7291  162.5992 C.3     1  UNL1        0.4186
     14 F         137.7922  138.2888  161.2130 F       1  UNL1       -0.1659
     15 F         138.6178  137.3376  162.9200 F       1  UNL1       -0.1659
     16 F         137.6997  140.1207  162.2785 F       1  UNL1       -0.1659
     17 C         142.6128  141.6324  166.7998 C.2     1  UNL1        0.2269
     18 O         142.9000  140.1803  167.0423 O.2     1  UNL1       -0.2747
     19 N         141.4875  142.3061  167.5276 N.am    1  UNL1       -0.3040
     20 H         141.2990  143.2592  167.3684 H       1  UNL1        0.1494
     21 C         143.4509  142.4109  165.8294 C.3     1  UNL1        0.1113
     22 C         141.4977  144.5802  162.4046 C.ar    1  UNL1        0.0479
     23 C         141.0169  143.2154  162.7997 C.ar    1  UNL1        0.0142
     24 C         141.6680  142.4922  163.9413 C.ar    1  UNL1       -0.0025
     25 C         142.7998  143.1340  164.6878 C.ar    1  UNL1       -0.0130
     26 C         143.2805  144.4988  164.2927 C.ar    1  UNL1       -0.0025
     27 C         142.6295  145.2219  163.1511 C.ar    1  UNL1        0.0142
     28 C         139.7368  146.2771  161.5274 C.3     1  UNL1        0.1122
     29 N         140.8466  145.3033  161.2630 N.pl3   1  UNL1       -0.3041
     30 C         141.3055  145.0527  159.8571 C.3     1  UNL1        0.1122
@<TRIPOS>BOND
     1    28    29    1
     2    29    30    1
     3    29    22    1
     4    22    23   ar
     5    23    24   ar
     6    24    25   ar
     7    25    21    1
     8    21    17    1
     9    17    18    2
    10    17    19   am
    11     1    19    1
    12     1     2    1
    13     2     3    1
    14     3     4    1
    15     4     5    1
    16     5     7    1
    17     7     8   ar
    18     8     9   ar
    19     9    10   ar
    20    10    13    1
    21    13    14    1
    22    13    15    1
    23    13    16    1
    24    10    11   ar
    25    11    12   ar
    26    25    26   ar
    27    26    27   ar
    28    27    22   ar
    29     5     1    1
    30    12     7   ar
    31    19    20    1
    32     3     6    1
