@<TRIPOS>MOLECULE
*****
 34 38 0 0 0
SMALL
GASTEIGER

@<TRIPOS>ATOM
      1 C         139.5406  142.4171  164.5475 C.ar    1  UNL1        0.1655
      2 N         140.5577  142.3320  163.4483 N.ar    1  UNL1       -0.2219
      3 C         140.4749  143.5939  162.6415 C.ar    1  UNL1        0.1344
      4 C         141.2343  144.0671  161.4376 C.ar    1  UNL1        0.1049
      5 C         140.9254  145.4052  160.8342 C.ar    1  UNL1        0.0392
      6 C         139.8571  146.2701  161.4349 C.ar    1  UNL1        0.0751
      7 N         139.0978  145.7969  162.6388 N.ar    1  UNL1       -0.3361
      8 C         139.4067  144.4588  163.2421 C.ar    1  UNL1        0.1615
      9 N         138.8292  143.7315  164.4201 N.ar    1  UNL1       -0.2081
     10 H         138.3966  146.3645  163.0330 H       1  UNL1        0.1675
     11 C         141.4267  141.8204  168.9975 C.ar    1  UNL1        0.0535
     12 C         140.8726  140.6217  169.7087 C.ar    1  UNL1        0.0060
     13 C         139.8476  139.7577  169.0357 C.ar    1  UNL1        0.0173
     14 C         139.3766  140.0926  167.6516 C.ar    1  UNL1        0.0601
     15 C         139.9307  141.2913  166.9403 C.ar    1  UNL1        0.0203
     16 C         140.9558  142.1553  167.6133 C.ar    1  UNL1        0.0061
     17 C         139.2805  141.3713  165.5909 C.ar    1  UNL1        0.0544
     18 C         138.3246  140.2220  165.4682 C.ar    1  UNL1        0.0790
     19 N         138.3840  139.4316  166.7417 N.ar    1  UNL1       -0.3240
     20 C         137.5901  138.1971  167.0512 C.3     1  UNL1        0.1305
     21 C         144.9368  143.2460  170.1793 C.3     1  UNL1        0.1109
     22 N         143.9118  142.3821  169.5063 N.am    1  UNL1       -0.2992
     23 C         142.4518  142.6844  169.6705 C.2     1  UNL1        0.2459
     24 O         142.0168  143.8505  170.5076 O.2     1  UNL1       -0.2701
     25 H         144.1973  141.6167  168.9569 H       1  UNL1        0.1498
     26 N         142.3025  143.2022  160.8370 N.ar    1  UNL1       -0.2268
     27 C         142.0793  141.9543  160.0351 C.ar    1  UNL1        0.0991
     28 C         143.4204  141.4141  159.6354 C.ar    1  UNL1        0.0339
     29 C         144.4724  142.3281  160.1902 C.ar    1  UNL1        0.1191
     30 N         143.7815  143.4332  160.9329 N.ar    1  UNL1       -0.1637
     31 C         143.6663  140.1771  158.8233 C.3     1  UNL1        0.1024
     32 N         143.4723  138.8239  159.4407 N.3     1  UNL1       -0.2664
     33 C         142.7429  137.7526  158.6855 C.3     1  UNL1        0.0899
     34 C         144.0077  138.5419  160.8131 C.3     1  UNL1        0.0899
@<TRIPOS>BOND
     1    21    22    1
     2    22    23   am
     3    23    24    2
     4    23    11    1
     5    11    12   ar
     6    12    13   ar
     7    13    14   ar
     8    14    15   ar
     9    15    16   ar
    10    15    17   ar
    11    17     1    1
    12     1     2   ar
    13     2     3   ar
    14     3     4   ar
    15     4    26    1
    16    26    27   ar
    17    27    28   ar
    18    28    31    1
    19    31    32    1
    20    32    33    1
    21    32    34    1
    22    28    29   ar
    23    29    30   ar
    24     4     5   ar
    25     5     6   ar
    26     6     7   ar
    27     7     8   ar
    28     8     9   ar
    29    17    18   ar
    30    18    19   ar
    31    19    20    1
    32    16    11   ar
    33     9     1   ar
    34    19    14   ar
    35     8     3    1
    36    30    26   ar
    37    22    25    1
    38     7    10    1
@<TRIPOS>MOLECULE
*****
 34 38 0 0 0
SMALL
GASTEIGER

@<TRIPOS>ATOM
      1 C         141.8015  138.5620  160.0092 C.ar    1  UNL1        0.1655
      2 N         140.9620  139.5487  160.7653 N.ar    1  UNL1       -0.2219
      3 C         140.7056  138.9875  162.1325 C.ar    1  UNL1        0.1344
      4 C         139.9400  139.5185  163.3080 C.ar    1  UNL1        0.1049
      5 C         139.8554  138.7160  164.5725 C.ar    1  UNL1        0.0392
      6 C         140.5365  137.3824  164.6613 C.ar    1  UNL1        0.0751
      7 N         141.3021  136.8515  163.4858 N.ar    1  UNL1       -0.3361
      8 C         141.3867  137.6540  162.2214 C.ar    1  UNL1        0.1615
      9 N         142.0640  137.3910  160.9091 N.ar    1  UNL1       -0.2081
     10 H         141.7491  135.9763  163.5442 H       1  UNL1        0.1675
     11 C         143.4117  135.2602  156.8121 C.ar    1  UNL1        0.0535
     12 C         143.8071  135.8665  155.4983 C.ar    1  UNL1        0.0060
     13 C         143.6830  137.3464  155.2876 C.ar    1  UNL1        0.0173
     14 C         143.1634  138.2200  156.3907 C.ar    1  UNL1        0.0601
     15 C         142.7681  137.6137  157.7044 C.ar    1  UNL1        0.0203
     16 C         142.8922  136.1338  157.9151 C.ar    1  UNL1        0.0061
     17 C         142.2924  138.7187  158.6005 C.ar    1  UNL1        0.0544
     18 C         142.3938  140.0079  157.8404 C.ar    1  UNL1        0.0790
     19 N         142.9322  139.6997  156.4747 N.ar    1  UNL1       -0.3240
     20 C         143.1934  140.6962  155.3844 C.3     1  UNL1        0.1305
     21 C         144.9450  131.7210  157.7465 C.3     1  UNL1        0.1109
     22 N         144.8208  133.2009  157.5358 N.am    1  UNL1       -0.2992
     23 C         143.5359  133.7802  157.0228 C.2     1  UNL1        0.2459
     24 O         142.3751  132.8797  156.7205 O.2     1  UNL1       -0.2701
     25 H         145.5828  133.7920  157.7342 H       1  UNL1        0.1498
     26 N         139.2590  140.8520  163.2191 N.ar    1  UNL1       -0.2268
     27 C         139.8987  142.1867  163.4627 C.ar    1  UNL1        0.0991
     28 C         138.8538  143.2446  163.2651 C.ar    1  UNL1        0.0339
     29 C         137.5683  142.5637  162.8993 C.ar    1  UNL1        0.1191
     30 N         137.8187  141.0850  162.8709 N.ar    1  UNL1       -0.1637
     31 C         139.0584  144.7237  163.4082 C.3     1  UNL1        0.1024
     32 N         140.2257  145.3874  162.7396 N.3     1  UNL1       -0.2664
     33 C         140.0680  145.9810  161.3711 C.3     1  UNL1        0.0899
     34 C         141.5505  145.4575  163.4394 C.3     1  UNL1        0.0899
@<TRIPOS>BOND
     1    21    22    1
     2    22    23   am
     3    23    24    2
     4    23    11    1
     5    11    12   ar
     6    12    13   ar
     7    13    14   ar
     8    14    15   ar
     9    15    16   ar
    10    15    17   ar
    11    17     1    1
    12     1     2   ar
    13     2     3   ar
    14     3     4   ar
    15     4    26    1
    16    26    27   ar
    17    27    28   ar
    18    28    31    1
    19    31    32    1
    20    32    33    1
    21    32    34    1
    22    28    29   ar
    23    29    30   ar
    24     4     5   ar
    25     5     6   ar
    26     6     7   ar
    27     7     8   ar
    28     8     9   ar
    29    17    18   ar
    30    18    19   ar
    31    19    20    1
    32    16    11   ar
    33     9     1   ar
    34    19    14   ar
    35     8     3    1
    36    30    26   ar
    37    22    25    1
    38     7    10    1
@<TRIPOS>MOLECULE
*****
 34 38 0 0 0
SMALL
GASTEIGER

@<TRIPOS>ATOM
      1 C         141.9987  138.1889  158.6032 C.ar    1  UNL1        0.1655
      2 N         141.1478  138.8961  159.6160 N.ar    1  UNL1       -0.2219
      3 C         141.9529  139.0486  160.8724 C.ar    1  UNL1        0.1344
      4 C         141.6323  139.6664  162.2012 C.ar    1  UNL1        0.1049
      5 C         142.6602  139.6712  163.2936 C.ar    1  UNL1        0.0392
      6 C         144.0087  139.0581  163.0572 C.ar    1  UNL1        0.0751
      7 N         144.3292  138.4404  161.7285 N.ar    1  UNL1       -0.3361
      8 C         143.3013  138.4356  160.6361 C.ar    1  UNL1        0.1615
      9 N         143.3296  137.9043  159.2336 N.ar    1  UNL1       -0.2081
     10 H         145.2142  138.0381  161.5734 H       1  UNL1        0.1675
     11 C         143.0905  134.3134  155.8637 C.ar    1  UNL1        0.0535
     12 C         142.4557  134.3631  154.5056 C.ar    1  UNL1        0.0060
     13 C         141.5908  135.5277  154.1240 C.ar    1  UNL1        0.0173
     14 C         141.3607  136.6427  155.1006 C.ar    1  UNL1        0.0601
     15 C         141.9955  136.5931  156.4588 C.ar    1  UNL1        0.0203
     16 C         142.8604  135.4284  156.8403 C.ar    1  UNL1        0.0061
     17 C         141.5903  137.8295  157.2053 C.ar    1  UNL1        0.0544
     18 C         140.7052  138.6432  156.3085 C.ar    1  UNL1        0.0790
     19 N         140.5633  137.9098  155.0078 N.ar    1  UNL1       -0.3240
     20 C         139.7642  138.3637  153.8222 C.3     1  UNL1        0.1305
     21 C         145.5297  131.9780  157.9484 C.3     1  UNL1        0.1109
     22 N         144.6648  133.1426  157.5668 N.am    1  UNL1       -0.2992
     23 C         143.9554  133.1488  156.2452 C.2     1  UNL1        0.2459
     24 O         144.1110  131.9904  155.3051 O.2     1  UNL1       -0.2701
     25 H         144.5627  133.9029  158.1839 H       1  UNL1        0.1498
     26 N         140.2838  140.2794  162.4374 N.ar    1  UNL1       -0.2268
     27 C         139.9839  141.7470  162.5149 C.ar    1  UNL1        0.0991
     28 C         138.5132  141.9071  162.7631 C.ar    1  UNL1        0.0339
     29 C         137.9043  140.5384  162.8390 C.ar    1  UNL1        0.1191
     30 N         138.9986  139.5324  162.6378 N.ar    1  UNL1       -0.1637
     31 C         137.7802  143.2076  162.9096 C.3     1  UNL1        0.1024
     32 N         138.4841  144.4057  163.4743 N.3     1  UNL1       -0.2664
     33 C         139.1724  145.3726  162.5570 C.3     1  UNL1        0.0899
     34 C         138.4997  144.6370  164.9562 C.3     1  UNL1        0.0899
@<TRIPOS>BOND
     1    21    22    1
     2    22    23   am
     3    23    24    2
     4    23    11    1
     5    11    12   ar
     6    12    13   ar
     7    13    14   ar
     8    14    15   ar
     9    15    16   ar
    10    15    17   ar
    11    17     1    1
    12     1     2   ar
    13     2     3   ar
    14     3     4   ar
    15     4    26    1
    16    26    27   ar
    17    27    28   ar
    18    28    31    1
    19    31    32    1
    20    32    33    1
    21    32    34    1
    22    28    29   ar
    23    29    30   ar
    24     4     5   ar
    25     5     6   ar
    26     6     7   ar
    27     7     8   ar
    28     8     9   ar
    29    17    18   ar
    30    18    19   ar
    31    19    20    1
    32    16    11   ar
    33     9     1   ar
    34    19    14   ar
    35     8     3    1
    36    30    26   ar
    37    22    25    1
    38     7    10    1
@<TRIPOS>MOLECULE
*****
 34 38 0 0 0
SMALL
GASTEIGER

@<TRIPOS>ATOM
      1 C         140.3788  144.4085  160.7422 C.ar    1  UNL1        0.1655
      2 N         139.5403  144.0358  159.5557 N.ar    1  UNL1       -0.2219
      3 C         140.2601  144.4870  158.3194 C.ar    1  UNL1        0.1344
      4 C         139.9127  144.3887  156.8635 C.ar    1  UNL1        0.1049
      5 C         140.8487  144.9419  155.8301 C.ar    1  UNL1        0.0392
      6 C         142.1320  145.5935  156.2527 C.ar    1  UNL1        0.0751
      7 N         142.4794  145.6917  157.7085 N.ar    1  UNL1       -0.3361
      8 C         141.5434  145.1385  158.7419 C.ar    1  UNL1        0.1615
      9 N         141.6168  145.0900  160.2393 N.ar    1  UNL1       -0.2081
     10 H         143.3217  146.1193  157.9859 H       1  UNL1        0.1675
     11 C         141.3046  140.5619  163.5817 C.ar    1  UNL1        0.0535
     12 C         140.7742  140.7258  164.9752 C.ar    1  UNL1        0.0060
     13 C         140.0477  141.9809  165.3583 C.ar    1  UNL1        0.0173
     14 C         139.8514  143.0721  164.3480 C.ar    1  UNL1        0.0601
     15 C         140.3818  142.9081  162.9545 C.ar    1  UNL1        0.0203
     16 C         141.1084  141.6530  162.5714 C.ar    1  UNL1        0.0061
     17 C         140.0390  144.1458  162.1794 C.ar    1  UNL1        0.0544
     18 C         139.2968  145.0747  163.0939 C.ar    1  UNL1        0.0790
     19 N         139.1809  144.4111  164.4342 N.ar    1  UNL1       -0.3240
     20 C         138.5118  144.9856  165.6476 C.3     1  UNL1        0.1305
     21 C         143.7559  138.0748  161.6961 C.3     1  UNL1        0.1109
     22 N         143.0294  139.3300  162.0792 N.am    1  UNL1       -0.2992
     23 C         142.0312  139.3067  163.1986 C.2     1  UNL1        0.2459
     24 O         141.7595  138.0284  163.9348 O.2     1  UNL1       -0.2701
     25 H         143.2077  140.1690  161.5960 H       1  UNL1        0.1498
     26 N         138.6293  143.7372  156.4410 N.ar    1  UNL1       -0.2268
     27 C         138.1229  142.4039  156.9055 C.ar    1  UNL1        0.0991
     28 C         136.8076  142.1472  156.2314 C.ar    1  UNL1        0.0339
     29 C         136.5013  143.3219  155.3504 C.ar    1  UNL1        0.1191
     30 N         137.6272  144.3045  155.4799 N.ar    1  UNL1       -0.1637
     31 C         135.9494  140.9296  156.4075 C.3     1  UNL1        0.1024
     32 N         134.8952  140.6019  155.3920 N.3     1  UNL1       -0.2664
     33 C         133.4601  140.9432  155.6639 C.3     1  UNL1        0.0899
     34 C         135.2761  139.9329  154.1047 C.3     1  UNL1        0.0899
@<TRIPOS>BOND
     1    21    22    1
     2    22    23   am
     3    23    24    2
     4    23    11    1
     5    11    12   ar
     6    12    13   ar
     7    13    14   ar
     8    14    15   ar
     9    15    16   ar
    10    15    17   ar
    11    17     1    1
    12     1     2   ar
    13     2     3   ar
    14     3     4   ar
    15     4    26    1
    16    26    27   ar
    17    27    28   ar
    18    28    31    1
    19    31    32    1
    20    32    33    1
    21    32    34    1
    22    28    29   ar
    23    29    30   ar
    24     4     5   ar
    25     5     6   ar
    26     6     7   ar
    27     7     8   ar
    28     8     9   ar
    29    17    18   ar
    30    18    19   ar
    31    19    20    1
    32    16    11   ar
    33     9     1   ar
    34    19    14   ar
    35     8     3    1
    36    30    26   ar
    37    22    25    1
    38     7    10    1
@<TRIPOS>MOLECULE
*****
 34 38 0 0 0
SMALL
GASTEIGER

@<TRIPOS>ATOM
      1 C         142.3814  142.3631  162.7269 C.ar    1  UNL1        0.1655
      2 N         141.7680  141.7400  163.9457 N.ar    1  UNL1       -0.2219
      3 C         142.7017  140.6763  164.4423 C.ar    1  UNL1        0.1344
      4 C         142.6217  139.7346  165.6071 C.ar    1  UNL1        0.1049
      5 C         143.7322  138.7584  165.8600 C.ar    1  UNL1        0.0392
      6 C         144.9227  138.7241  164.9481 C.ar    1  UNL1        0.0751
      7 N         145.0027  139.6658  163.7834 N.ar    1  UNL1       -0.3361
      8 C         143.8922  140.6420  163.5305 C.ar    1  UNL1        0.1615
      9 N         143.6943  141.6844  162.4703 N.ar    1  UNL1       -0.2081
     10 H         145.7841  139.6433  163.1849 H       1  UNL1        0.1675
     11 C         143.0827  143.6132  158.0727 C.ar    1  UNL1        0.0535
     12 C         142.2698  144.8048  157.6611 C.ar    1  UNL1        0.0060
     13 C         141.3639  145.4733  158.6523 C.ar    1  UNL1        0.0173
     14 C         141.2709  144.9503  160.0550 C.ar    1  UNL1        0.0601
     15 C         142.0838  143.7587  160.4666 C.ar    1  UNL1        0.0203
     16 C         142.9897  143.0902  159.4754 C.ar    1  UNL1        0.0061
     17 C         141.7865  143.4703  161.9083 C.ar    1  UNL1        0.0544
     18 C         140.7899  144.4837  162.3878 C.ar    1  UNL1        0.0790
     19 N         140.4712  145.3983  161.2424 N.ar    1  UNL1       -0.3240
     20 C         139.5199  146.5575  161.2780 C.3     1  UNL1        0.1305
     21 C         146.3057  141.9401  156.4717 C.3     1  UNL1        0.1109
     22 N         145.3998  142.6086  157.4629 N.am    1  UNL1       -0.2992
     23 C         143.9886  142.9447  157.0815 C.2     1  UNL1        0.2459
     24 O         143.4833  142.6123  155.7088 O.2     1  UNL1       -0.2701
     25 H         145.7314  142.8268  158.3638 H       1  UNL1        0.1498
     26 N         141.4312  139.7690  166.5189 N.ar    1  UNL1       -0.2268
     27 C         141.4395  140.1675  167.9650 C.ar    1  UNL1        0.0991
     28 C         140.0367  140.0558  168.4847 C.ar    1  UNL1        0.0339
     29 C         139.1616  139.5882  167.3597 C.ar    1  UNL1        0.1191
     30 N         140.0234  139.4109  166.1449 N.ar    1  UNL1       -0.1637
     31 C         139.5880  140.3585  169.8836 C.3     1  UNL1        0.1024
     32 N         140.2530  141.4532  170.6642 N.3     1  UNL1       -0.2664
     33 C         139.6956  142.8453  170.6279 C.3     1  UNL1        0.0899
     34 C         141.4754  141.1559  171.4810 C.3     1  UNL1        0.0899
@<TRIPOS>BOND
     1    21    22    1
     2    22    23   am
     3    23    24    2
     4    23    11    1
     5    11    12   ar
     6    12    13   ar
     7    13    14   ar
     8    14    15   ar
     9    15    16   ar
    10    15    17   ar
    11    17     1    1
    12     1     2   ar
    13     2     3   ar
    14     3     4   ar
    15     4    26    1
    16    26    27   ar
    17    27    28   ar
    18    28    31    1
    19    31    32    1
    20    32    33    1
    21    32    34    1
    22    28    29   ar
    23    29    30   ar
    24     4     5   ar
    25     5     6   ar
    26     6     7   ar
    27     7     8   ar
    28     8     9   ar
    29    17    18   ar
    30    18    19   ar
    31    19    20    1
    32    16    11   ar
    33     9     1   ar
    34    19    14   ar
    35     8     3    1
    36    30    26   ar
    37    22    25    1
    38     7    10    1
@<TRIPOS>MOLECULE
*****
 34 38 0 0 0
SMALL
GASTEIGER

@<TRIPOS>ATOM
      1 C         142.9471  139.2003  158.8189 C.ar    1  UNL1        0.1655
      2 N         142.5904  140.4423  159.5806 N.ar    1  UNL1       -0.2219
      3 C         143.1345  140.3053  160.9717 C.ar    1  UNL1        0.1344
      4 C         143.0884  141.2172  162.1618 C.ar    1  UNL1        0.1049
      5 C         143.7353  140.8024  163.4500 C.ar    1  UNL1        0.0392
      6 C         144.4282  139.4755  163.5480 C.ar    1  UNL1        0.0751
      7 N         144.4742  138.5637  162.3580 N.ar    1  UNL1       -0.3361
      8 C         143.8274  138.9785  161.0698 C.ar    1  UNL1        0.1615
      9 N         143.7116  138.2956  159.7393 N.ar    1  UNL1       -0.2081
     10 H         144.9290  137.6929  162.4224 H       1  UNL1        0.1675
     11 C         142.9090  135.0150  156.3293 C.ar    1  UNL1        0.0535
     12 C         142.4913  135.1919  154.8996 C.ar    1  UNL1        0.0060
     13 C         142.1411  136.5562  154.3838 C.ar    1  UNL1        0.0173
     14 C         142.2086  137.7436  155.2978 C.ar    1  UNL1        0.0601
     15 C         142.6263  137.5668  156.7275 C.ar    1  UNL1        0.0203
     16 C         142.9766  136.2024  157.2433 C.ar    1  UNL1        0.0061
     17 C         142.6002  138.9133  157.3881 C.ar    1  UNL1        0.0544
     18 C         142.1664  139.9223  156.3666 C.ar    1  UNL1        0.0790
     19 N         141.9243  139.1995  155.0747 N.ar    1  UNL1       -0.3240
     20 C         141.4766  139.8229  153.7860 C.3     1  UNL1        0.1305
     21 C         144.9861  132.0157  157.8913 C.3     1  UNL1        0.1109
     22 N         144.6359  133.3800  157.3755 N.am    1  UNL1       -0.2992
     23 C         143.2592  133.6507  156.8450 C.2     1  UNL1        0.2459
     24 O         142.2328  132.5571  156.8303 O.2     1  UNL1       -0.2701
     25 H         145.3096  134.0978  157.3852 H       1  UNL1        0.1498
     26 N         142.3955  142.5439  162.0636 N.ar    1  UNL1       -0.2268
     27 C         141.1947  142.9720  162.8541 C.ar    1  UNL1        0.0991
     28 C         140.8387  144.3682  162.4369 C.ar    1  UNL1        0.0339
     29 C         141.8195  144.8029  161.3885 C.ar    1  UNL1        0.1191
     30 N         142.7816  143.6754  161.1578 N.ar    1  UNL1       -0.1637
     31 C         139.7017  145.1860  162.9737 C.3     1  UNL1        0.1024
     32 N         138.6697  144.5478  163.8556 N.3     1  UNL1       -0.2664
     33 C         138.7184  144.7575  165.3400 C.3     1  UNL1        0.0899
     34 C         137.5891  143.6999  163.2530 C.3     1  UNL1        0.0899
@<TRIPOS>BOND
     1    21    22    1
     2    22    23   am
     3    23    24    2
     4    23    11    1
     5    11    12   ar
     6    12    13   ar
     7    13    14   ar
     8    14    15   ar
     9    15    16   ar
    10    15    17   ar
    11    17     1    1
    12     1     2   ar
    13     2     3   ar
    14     3     4   ar
    15     4    26    1
    16    26    27   ar
    17    27    28   ar
    18    28    31    1
    19    31    32    1
    20    32    33    1
    21    32    34    1
    22    28    29   ar
    23    29    30   ar
    24     4     5   ar
    25     5     6   ar
    26     6     7   ar
    27     7     8   ar
    28     8     9   ar
    29    17    18   ar
    30    18    19   ar
    31    19    20    1
    32    16    11   ar
    33     9     1   ar
    34    19    14   ar
    35     8     3    1
    36    30    26   ar
    37    22    25    1
    38     7    10    1
@<TRIPOS>MOLECULE
*****
 34 38 0 0 0
SMALL
GASTEIGER

@<TRIPOS>ATOM
      1 C         140.1745  144.5420  158.8284 C.ar    1  UNL1        0.1655
      2 N         139.7050  143.3370  159.5883 N.ar    1  UNL1       -0.2219
      3 C         139.5758  143.7211  161.0326 C.ar    1  UNL1        0.1344
      4 C         139.1537  142.9438  162.2440 C.ar    1  UNL1        0.1049
      5 C         139.1213  143.6089  163.5881 C.ar    1  UNL1        0.0392
      6 C         139.5110  145.0513  163.7207 C.ar    1  UNL1        0.0751
      7 N         139.9331  145.8286  162.5093 N.ar    1  UNL1       -0.3361
      8 C         139.9656  145.1635  161.1652 C.ar    1  UNL1        0.1615
      9 N         140.3356  145.6709  159.8030 N.ar    1  UNL1       -0.2081
     10 H         140.1889  146.7752  162.5964 H       1  UNL1        0.1675
     11 C         139.3905  148.1103  155.6083 C.ar    1  UNL1        0.0535
     12 C         139.8088  147.7404  154.2161 C.ar    1  UNL1        0.0060
     13 C         140.3975  146.3877  153.9443 C.ar    1  UNL1        0.0173
     14 C         140.5678  145.4050  155.0646 C.ar    1  UNL1        0.0601
     15 C         140.1495  145.7749  156.4568 C.ar    1  UNL1        0.0203
     16 C         139.5608  147.1275  156.7286 C.ar    1  UNL1        0.0061
     17 C         140.4370  144.6068  157.3530 C.ar    1  UNL1        0.0544
     18 C         141.0330  143.5151  156.5147 C.ar    1  UNL1        0.0790
     19 N         141.1138  144.0084  155.1004 N.ar    1  UNL1       -0.3240
     20 C         141.6471  143.2400  153.9277 C.3     1  UNL1        0.1305
     21 C         138.3964  151.9262  155.1606 C.3     1  UNL1        0.1109
     22 N         138.9850  150.5735  154.8888 N.am    1  UNL1       -0.2992
     23 C         138.8019  149.4629  155.8801 C.2     1  UNL1        0.2459
     24 O         138.0300  149.7049  157.1433 O.2     1  UNL1       -0.2701
     25 H         139.4916  150.4147  154.0597 H       1  UNL1        0.1498
     26 N         138.7640  141.5014  162.1113 N.ar    1  UNL1       -0.2268
     27 C         139.2760  140.3690  162.9511 C.ar    1  UNL1        0.0991
     28 C         138.6223  139.1058  162.4744 C.ar    1  UNL1        0.0339
     29 C         137.7062  139.4577  161.3399 C.ar    1  UNL1        0.1191
     30 N         137.7938  140.9383  161.1155 N.ar    1  UNL1       -0.1637
     31 C         138.8455  137.7321  163.0338 C.3     1  UNL1        0.1024
     32 N         139.4846  137.5655  164.3806 N.3     1  UNL1       -0.2664
     33 C         140.9444  137.2364  164.4825 C.3     1  UNL1        0.0899
     34 C         138.6638  137.7281  165.6255 C.3     1  UNL1        0.0899
@<TRIPOS>BOND
     1    21    22    1
     2    22    23   am
     3    23    24    2
     4    23    11    1
     5    11    12   ar
     6    12    13   ar
     7    13    14   ar
     8    14    15   ar
     9    15    16   ar
    10    15    17   ar
    11    17     1    1
    12     1     2   ar
    13     2     3   ar
    14     3     4   ar
    15     4    26    1
    16    26    27   ar
    17    27    28   ar
    18    28    31    1
    19    31    32    1
    20    32    33    1
    21    32    34    1
    22    28    29   ar
    23    29    30   ar
    24     4     5   ar
    25     5     6   ar
    26     6     7   ar
    27     7     8   ar
    28     8     9   ar
    29    17    18   ar
    30    18    19   ar
    31    19    20    1
    32    16    11   ar
    33     9     1   ar
    34    19    14   ar
    35     8     3    1
    36    30    26   ar
    37    22    25    1
    38     7    10    1
@<TRIPOS>MOLECULE
*****
 34 38 0 0 0
SMALL
GASTEIGER

@<TRIPOS>ATOM
      1 C         140.9026  143.6738  160.5416 C.ar    1  UNL1        0.1655
      2 N         141.3463  143.3084  161.9271 N.ar    1  UNL1       -0.2219
      3 C         140.1951  143.5433  162.8596 C.ar    1  UNL1        0.1344
      4 C         140.0495  143.3582  164.3410 C.ar    1  UNL1        0.1049
      5 C         138.7487  143.6837  165.0133 C.ar    1  UNL1        0.0392
      6 C         137.5935  144.1944  164.2040 C.ar    1  UNL1        0.0751
      7 N         137.7392  144.3794  162.7227 N.ar    1  UNL1       -0.3361
      8 C         139.0400  144.0539  162.0504 C.ar    1  UNL1        0.1615
      9 N         139.4772  144.1346  160.6178 N.ar    1  UNL1       -0.2081
     10 H         136.9810  144.7146  162.1916 H       1  UNL1        0.1675
     11 C         140.4304  145.9029  156.2376 C.ar    1  UNL1        0.0535
     12 C         141.5070  145.5237  155.2644 C.ar    1  UNL1        0.0060
     13 C         142.5746  144.5507  155.6686 C.ar    1  UNL1        0.0173
     14 C         142.5656  143.9568  157.0459 C.ar    1  UNL1        0.0601
     15 C         141.4890  144.3360  158.0191 C.ar    1  UNL1        0.0203
     16 C         140.4214  145.3090  157.6150 C.ar    1  UNL1        0.0061
     17 C         141.7376  143.5927  159.2982 C.ar    1  UNL1        0.0544
     18 C         142.9679  142.7543  159.1154 C.ar    1  UNL1        0.0790
     19 N         143.4796  142.9793  157.7235 N.ar    1  UNL1       -0.3240
     20 C         144.6924  142.3391  157.1157 C.3     1  UNL1        0.1305
     21 C         138.4761  149.3141  155.6949 C.3     1  UNL1        0.1109
     22 N         139.5438  148.3411  156.0991 N.am    1  UNL1       -0.2992
     23 C         139.3627  146.8760  155.8334 C.2     1  UNL1        0.2459
     24 O         138.1141  146.3839  155.1636 O.2     1  UNL1       -0.2701
     25 H         140.3633  148.6640  156.5387 H       1  UNL1        0.1498
     26 N         141.2048  142.8476  165.1501 N.ar    1  UNL1       -0.2268
     27 C         141.1354  141.8029  166.2242 C.ar    1  UNL1        0.0991
     28 C         142.5200  141.6016  166.7652 C.ar    1  UNL1        0.0339
     29 C         143.4450  142.5219  166.0253 C.ar    1  UNL1        0.1191
     30 N         142.6321  143.2920  165.0271 N.ar    1  UNL1       -0.1637
     31 C         142.9109  140.6475  167.8546 C.3     1  UNL1        0.1024
     32 N         142.7377  141.0391  169.2922 N.3     1  UNL1       -0.2664
     33 C         142.5965  139.9809  170.3459 C.3     1  UNL1        0.0899
     34 C         142.7057  142.4887  169.6761 C.3     1  UNL1        0.0899
@<TRIPOS>BOND
     1    21    22    1
     2    22    23   am
     3    23    24    2
     4    23    11    1
     5    11    12   ar
     6    12    13   ar
     7    13    14   ar
     8    14    15   ar
     9    15    16   ar
    10    15    17   ar
    11    17     1    1
    12     1     2   ar
    13     2     3   ar
    14     3     4   ar
    15     4    26    1
    16    26    27   ar
    17    27    28   ar
    18    28    31    1
    19    31    32    1
    20    32    33    1
    21    32    34    1
    22    28    29   ar
    23    29    30   ar
    24     4     5   ar
    25     5     6   ar
    26     6     7   ar
    27     7     8   ar
    28     8     9   ar
    29    17    18   ar
    30    18    19   ar
    31    19    20    1
    32    16    11   ar
    33     9     1   ar
    34    19    14   ar
    35     8     3    1
    36    30    26   ar
    37    22    25    1
    38     7    10    1
@<TRIPOS>MOLECULE
*****
 34 38 0 0 0
SMALL
GASTEIGER

@<TRIPOS>ATOM
      1 C         138.8986  139.1797  160.3277 C.ar    1  UNL1        0.1655
      2 N         139.7976  138.3792  159.4327 N.ar    1  UNL1       -0.2219
      3 C         139.4939  138.7568  158.0131 C.ar    1  UNL1        0.1344
      4 C         140.0666  138.2928  156.7067 C.ar    1  UNL1        0.1049
      5 C         139.5525  138.8627  155.4179 C.ar    1  UNL1        0.0392
      6 C         138.4658  139.8966  155.4356 C.ar    1  UNL1        0.0751
      7 N         137.8933  140.3605  156.7420 N.ar    1  UNL1       -0.3361
      8 C         138.4073  139.7907  158.0308 C.ar    1  UNL1        0.1615
      9 N         138.0393  140.0520  159.4613 N.ar    1  UNL1       -0.2081
     10 H         137.1801  141.0391  156.7536 H       1  UNL1        0.1675
     11 C         139.1246  142.7191  163.6650 C.ar    1  UNL1        0.0535
     12 C         139.0549  142.1995  165.0704 C.ar    1  UNL1        0.0060
     13 C         138.9293  140.7257  165.3197 C.ar    1  UNL1        0.0173
     14 C         138.8733  139.7716  164.1637 C.ar    1  UNL1        0.0601
     15 C         138.9430  140.2912  162.7583 C.ar    1  UNL1        0.0203
     16 C         139.0686  141.7650  162.5090 C.ar    1  UNL1        0.0061
     17 C         138.8648  139.1186  161.8261 C.ar    1  UNL1        0.0544
     18 C         138.7468  137.8743  162.6553 C.ar    1  UNL1        0.0790
     19 N         138.7521  138.2778  164.1000 N.ar    1  UNL1       -0.3240
     20 C         138.6534  137.3505  165.2749 C.3     1  UNL1        0.1305
     21 C         139.7487  146.1676  161.8025 C.3     1  UNL1        0.1109
     22 N         139.6231  144.6938  162.0519 N.am    1  UNL1       -0.2992
     23 C         139.2502  144.1929  163.4157 C.2     1  UNL1        0.2459
     24 O         139.0031  145.1659  164.5302 O.2     1  UNL1       -0.2701
     25 H         139.7853  144.0552  161.3203 H       1  UNL1        0.1498
     26 N         141.1532  137.2590  156.6891 N.ar    1  UNL1       -0.2268
     27 C         141.2220  136.0677  155.7802 C.ar    1  UNL1        0.0991
     28 C         142.4732  135.3073  156.1067 C.ar    1  UNL1        0.0339
     29 C         143.1776  136.0287  157.2172 C.ar    1  UNL1        0.1191
     30 N         142.3618  137.2349  157.5772 N.ar    1  UNL1       -0.1637
     31 C         142.9383  134.0468  155.4396 C.3     1  UNL1        0.1024
     32 N         142.3031  132.7341  155.7908 N.3     1  UNL1       -0.2664
     33 C         142.9047  131.8725  156.8612 C.3     1  UNL1        0.0899
     34 C         141.0665  132.2831  155.0718 C.3     1  UNL1        0.0899
@<TRIPOS>BOND
     1    21    22    1
     2    22    23   am
     3    23    24    2
     4    23    11    1
     5    11    12   ar
     6    12    13   ar
     7    13    14   ar
     8    14    15   ar
     9    15    16   ar
    10    15    17   ar
    11    17     1    1
    12     1     2   ar
    13     2     3   ar
    14     3     4   ar
    15     4    26    1
    16    26    27   ar
    17    27    28   ar
    18    28    31    1
    19    31    32    1
    20    32    33    1
    21    32    34    1
    22    28    29   ar
    23    29    30   ar
    24     4     5   ar
    25     5     6   ar
    26     6     7   ar
    27     7     8   ar
    28     8     9   ar
    29    17    18   ar
    30    18    19   ar
    31    19    20    1
    32    16    11   ar
    33     9     1   ar
    34    19    14   ar
    35     8     3    1
    36    30    26   ar
    37    22    25    1
    38     7    10    1
