@<TRIPOS>MOLECULE
*****
 46 51 0 0 0
SMALL
GASTEIGER

@<TRIPOS>ATOM
      1 C         138.1815  139.8677  156.1134 C.ar    1  UNL1        0.0500
      2 C         138.2780  140.0422  157.6001 C.ar    1  UNL1        0.0146
      3 C         139.2587  139.2261  158.3889 C.ar    1  UNL1        0.0025
      4 C         140.1428  138.2354  157.6910 C.ar    1  UNL1        0.0043
      5 C         140.0462  138.0609  156.2043 C.ar    1  UNL1        0.0506
      6 C         139.0656  138.8770  155.4156 C.ar    1  UNL1       -0.0038
      7 C         138.9690  138.7026  153.9288 C.3     1  UNL1        0.0325
      8 C         139.3553  139.4005  159.8756 C.ar    1  UNL1        0.0137
      9 C         138.5390  138.5329  160.7871 C.ar    1  UNL1        0.0040
     10 C         138.6356  138.7073  162.2738 C.ar    1  UNL1        0.0343
     11 C         139.5484  139.7495  162.8490 C.ar    1  UNL1        0.1313
     12 N         140.3647  140.6171  161.9374 N.ar    1  UNL1       -0.2350
     13 C         140.2681  140.4426  160.4507 C.ar    1  UNL1        0.0607
     14 C         141.0843  141.3103  159.5391 C.3     1  UNL1        0.0521
     15 N         139.6450  139.9239  164.3356 N.pl3   1  UNL1       -0.2904
     16 C         138.6814  139.2123  165.2385 C.3     1  UNL1        0.1095
     17 C         138.7779  139.3867  166.7251 C.3     1  UNL1        0.0939
     18 N         139.8381  140.2728  167.3090 N.3     1  UNL1       -0.2698
     19 C         140.8017  140.9845  166.4062 C.3     1  UNL1        0.0939
     20 C         140.7051  140.8100  164.9195 C.3     1  UNL1        0.1095
     21 C         139.9347  140.4473  168.7957 C.3     1  UNL1        0.0721
     22 C         140.0821  141.8202  169.3818 C.3     1  UNL1        0.0160
     23 C         139.9970  142.7461  170.5587 C.3     1  UNL1        0.0014
     24 C         140.4224  143.2720  169.2199 C.3     1  UNL1        0.0014
     25 C         140.9303  137.0703  155.5065 C.2     1  UNL1        0.2456
     26 O         142.1117  137.5469  154.7145 O.2     1  UNL1       -0.2702
     27 N         140.6331  135.6031  155.6005 N.am    1  UNL1       -0.3001
     28 H         139.8577  135.2903  156.1203 H       1  UNL1        0.1498
     29 C         141.5172  134.6125  154.9027 C.3     1  UNL1        0.1029
     30 C         142.3082  133.6197  155.7020 C.3     1  UNL1        0.1164
     31 C         142.0063  132.1548  155.5888 C.2     1  UNL1       -0.0330
     32 C         140.9134  131.6826  154.6763 C.3     1  UNL1        0.0269
     33 C         142.7973  131.1620  156.3881 C.2     1  UNL1        0.0042
     34 C         143.8901  131.6342  157.3005 C.2     1  UNL1        0.0508
     35 C         144.6811  130.6415  158.0998 C.3     1  UNL1        0.0493
     36 N         144.1921  133.0992  157.4137 N.am    1  UNL1       -0.1833
     37 C         143.4011  134.0919  156.6144 C.2     1  UNL1        0.2503
     38 O         143.7030  135.5569  156.7276 O.2     1  UNL1       -0.2726
     39 N         137.2008  140.6838  155.3246 N.am    1  UNL1       -0.2590
     40 C         135.9208  140.0637  154.8482 C.2     1  UNL1        0.2288
     41 O         135.6214  138.6275  155.1606 O.2     1  UNL1       -0.2745
     42 C         134.9401  140.8799  154.0593 C.3     1  UNL1        0.0771
     43 C         134.6087  141.6950  152.8445 C.3     1  UNL1        0.0096
     44 C         133.5730  141.4783  153.9077 C.3     1  UNL1        0.0096
     45 C         137.0420  143.2017  155.9448 C.3     1  UNL1        0.0237
     46 C         137.5002  142.1200  155.0121 C.3     1  UNL1        0.0982
@<TRIPOS>BOND
     1    45    46    1
     2    46    39    1
     3    39    40   am
     4    40    41    2
     5    40    42    1
     6    42    43    1
     7    43    44    1
     8    39     1    1
     9     1     2   ar
    10     2     3   ar
    11     3     8    1
    12     8     9   ar
    13     9    10   ar
    14    10    11   ar
    15    11    15    1
    16    15    16    1
    17    16    17    1
    18    17    18    1
    19    18    21    1
    20    21    22    1
    21    22    23    1
    22    23    24    1
    23    18    19    1
    24    19    20    1
    25    11    12   ar
    26    12    13   ar
    27    13    14    1
    28     3     4   ar
    29     4     5   ar
    30     5    25    1
    31    25    26    2
    32    25    27   am
    33    27    29    1
    34    29    30    1
    35    30    31    1
    36    31    32    1
    37    31    33    2
    38    33    34    1
    39    34    35    1
    40    34    36    2
    41    36    37    1
    42    37    38    2
    43     5     6   ar
    44     6     7    1
    45    44    42    1
    46     6     1   ar
    47    13     8   ar
    48    37    30    1
    49    20    15    1
    50    24    22    1
    51    27    28    1
@<TRIPOS>MOLECULE
*****
 46 51 0 0 0
SMALL
GASTEIGER

@<TRIPOS>ATOM
      1 C         139.9699  138.9255  156.3579 C.ar    1  UNL1        0.0500
      2 C         139.8451  139.2871  157.8083 C.ar    1  UNL1        0.0146
      3 C         140.7655  138.6675  158.8176 C.ar    1  UNL1        0.0025
      4 C         141.8108  137.6862  158.3766 C.ar    1  UNL1        0.0043
      5 C         141.9356  137.3245  156.9262 C.ar    1  UNL1        0.0506
      6 C         141.0152  137.9442  155.9169 C.ar    1  UNL1       -0.0038
      7 C         141.1400  137.5825  154.4664 C.3     1  UNL1        0.0325
      8 C         140.6407  139.0291  160.2681 C.ar    1  UNL1        0.0137
      9 C         139.7346  138.2369  161.1632 C.ar    1  UNL1        0.0040
     10 C         139.6098  138.5985  162.6136 C.ar    1  UNL1        0.0343
     11 C         140.3911  139.7523  163.1689 C.ar    1  UNL1        0.1313
     12 N         141.2973  140.5445  162.2737 N.ar    1  UNL1       -0.2350
     13 C         141.4221  140.1829  160.8233 C.ar    1  UNL1        0.0607
     14 C         142.3282  140.9751  159.9281 C.3     1  UNL1        0.0521
     15 N         140.2663  140.1139  164.6193 N.pl3   1  UNL1       -0.2904
     16 C         141.1007  141.2217  165.1905 C.3     1  UNL1        0.1095
     17 C         140.9759  141.5833  166.6409 C.3     1  UNL1        0.0939
     18 N         140.0166  140.8370  167.5201 N.3     1  UNL1       -0.2698
     19 C         139.1822  139.7291  166.9488 C.3     1  UNL1        0.0939
     20 C         139.3071  139.3676  165.4984 C.3     1  UNL1        0.1095
     21 C         139.8918  141.1986  168.9705 C.3     1  UNL1        0.0721
     22 C         140.4970  142.4727  169.4806 C.3     1  UNL1        0.0160
     23 C         141.6664  143.2171  170.0536 C.3     1  UNL1        0.0014
     24 C         140.3759  143.9352  169.7911 C.3     1  UNL1        0.0014
     25 C         142.9809  136.3432  156.4852 C.2     1  UNL1        0.2456
     26 O         144.2426  136.8318  155.8378 O.2     1  UNL1       -0.2702
     27 N         142.7643  134.8734  156.6916 N.am    1  UNL1       -0.3001
     28 H         141.9362  134.5527  157.1165 H       1  UNL1        0.1498
     29 C         143.8096  133.8921  156.2506 C.3     1  UNL1        0.1029
     30 C         143.5645  132.4193  156.3958 C.3     1  UNL1        0.1164
     31 C         144.4419  131.5979  157.2932 C.2     1  UNL1       -0.0330
     32 C         145.5644  132.2491  158.0454 C.3     1  UNL1        0.0269
     33 C         144.1968  130.1251  157.4384 C.2     1  UNL1        0.0042
     34 C         143.0743  129.4739  156.6861 C.2     1  UNL1        0.0508
     35 C         142.8292  128.0012  156.8313 C.3     1  UNL1        0.0493
     36 N         142.1969  130.2954  155.7887 N.am    1  UNL1       -0.1833
     37 C         142.4420  131.7681  155.6435 C.2     1  UNL1        0.2503
     38 O         141.5646  132.5896  154.7461 O.2     1  UNL1       -0.2726
     39 N         139.0495  139.5451  155.3485 N.am    1  UNL1       -0.2590
     40 C         137.8919  138.7596  154.8073 C.2     1  UNL1        0.2288
     41 O         137.6547  137.3544  155.2754 O.2     1  UNL1       -0.2745
     42 C         136.9715  139.3793  153.7979 C.3     1  UNL1        0.0771
     43 C         136.2205  139.2974  152.5020 C.3     1  UNL1        0.0096
     44 C         136.1282  140.5344  153.3454 C.3     1  UNL1        0.0096
     45 C         140.2719  141.2186  153.7816 C.3     1  UNL1        0.0237
     46 C         139.2866  140.9503  154.8804 C.3     1  UNL1        0.0982
@<TRIPOS>BOND
     1    45    46    1
     2    46    39    1
     3    39    40   am
     4    40    41    2
     5    40    42    1
     6    42    43    1
     7    43    44    1
     8    39     1    1
     9     1     2   ar
    10     2     3   ar
    11     3     8    1
    12     8     9   ar
    13     9    10   ar
    14    10    11   ar
    15    11    15    1
    16    15    16    1
    17    16    17    1
    18    17    18    1
    19    18    21    1
    20    21    22    1
    21    22    23    1
    22    23    24    1
    23    18    19    1
    24    19    20    1
    25    11    12   ar
    26    12    13   ar
    27    13    14    1
    28     3     4   ar
    29     4     5   ar
    30     5    25    1
    31    25    26    2
    32    25    27   am
    33    27    29    1
    34    29    30    1
    35    30    31    1
    36    31    32    1
    37    31    33    2
    38    33    34    1
    39    34    35    1
    40    34    36    2
    41    36    37    1
    42    37    38    2
    43     5     6   ar
    44     6     7    1
    45    44    42    1
    46     6     1   ar
    47    13     8   ar
    48    37    30    1
    49    20    15    1
    50    24    22    1
    51    27    28    1
@<TRIPOS>MOLECULE
*****
 46 51 0 0 0
SMALL
GASTEIGER

@<TRIPOS>ATOM
      1 C         138.8045  139.7064  156.0382 C.ar    1  UNL1        0.0500
      2 C         138.8819  139.8608  157.5282 C.ar    1  UNL1        0.0146
      3 C         139.7552  138.9442  158.3328 C.ar    1  UNL1        0.0025
      4 C         140.5510  137.8733  157.6473 C.ar    1  UNL1        0.0043
      5 C         140.4736  137.7190  156.1573 C.ar    1  UNL1        0.0506
      6 C         139.6003  138.6355  155.3528 C.ar    1  UNL1       -0.0038
      7 C         139.5229  138.4812  153.8627 C.3     1  UNL1        0.0325
      8 C         139.8326  139.0986  159.8228 C.ar    1  UNL1        0.0137
      9 C         138.8460  138.3896  160.7026 C.ar    1  UNL1        0.0040
     10 C         138.9234  138.5439  162.1926 C.ar    1  UNL1        0.0343
     11 C         139.9875  139.4072  162.8029 C.ar    1  UNL1        0.1313
     12 N         140.9742  140.1161  161.9232 N.ar    1  UNL1       -0.2350
     13 C         140.8968  139.9618  160.4331 C.ar    1  UNL1        0.0607
     14 C         141.8834  140.6707  159.5534 C.3     1  UNL1        0.0521
     15 N         140.0649  139.5615  164.2929 N.pl3   1  UNL1       -0.2904
     16 C         141.3683  139.9201  164.9431 C.3     1  UNL1        0.1095
     17 C         141.4457  140.0744  166.4331 C.3     1  UNL1        0.0939
     18 N         140.2197  139.8700  167.2730 N.3     1  UNL1       -0.2698
     19 C         138.9164  139.5114  166.6228 C.3     1  UNL1        0.0939
     20 C         138.8390  139.3571  165.1328 C.3     1  UNL1        0.1095
     21 C         140.2972  140.0243  168.7630 C.3     1  UNL1        0.0721
     22 C         141.5872  139.7538  169.4790 C.3     1  UNL1        0.0160
     23 C         142.6328  138.7877  169.9515 C.3     1  UNL1        0.0014
     24 C         142.7759  140.2514  170.2467 C.3     1  UNL1        0.0014
     25 C         141.2694  136.6481  155.4719 C.2     1  UNL1        0.2456
     26 O         142.4528  137.0175  154.6275 O.2     1  UNL1       -0.2702
     27 N         140.8818  135.2078  155.6308 N.am    1  UNL1       -0.3001
     28 H         140.1051  134.9653  156.1850 H       1  UNL1        0.1498
     29 C         141.6777  134.1369  154.9453 C.3     1  UNL1        0.1029
     30 C         142.4044  133.1064  155.7578 C.3     1  UNL1        0.1164
     31 C         142.0490  131.6557  155.6204 C.2     1  UNL1       -0.0330
     32 C         140.9668  131.2353  154.6706 C.3     1  UNL1        0.0269
     33 C         142.7758  130.6252  156.4329 C.2     1  UNL1        0.0042
     34 C         143.8579  131.0456  157.3827 C.2     1  UNL1        0.0508
     35 C         144.5847  130.0152  158.1952 C.3     1  UNL1        0.0493
     36 N         144.2133  132.4964  157.5201 N.am    1  UNL1       -0.1833
     37 C         143.4866  133.5268  156.7076 C.2     1  UNL1        0.2503
     38 O         143.8420  134.9777  156.8450 O.2     1  UNL1       -0.2726
     39 N         137.9312  140.6230  155.2336 N.am    1  UNL1       -0.2590
     40 C         138.5345  141.7906  154.5107 C.2     1  UNL1        0.2288
     41 O         140.0111  142.0417  154.5924 O.2     1  UNL1       -0.2745
     42 C         137.6612  142.7072  153.7061 C.3     1  UNL1        0.0771
     43 C         137.2386  143.2662  152.3799 C.3     1  UNL1        0.0096
     44 C         136.5713  143.7356  153.6386 C.3     1  UNL1        0.0096
     45 C         135.9325  139.2277  154.3345 C.3     1  UNL1        0.0237
     46 C         136.4546  140.3718  155.1519 C.3     1  UNL1        0.0982
@<TRIPOS>BOND
     1    45    46    1
     2    46    39    1
     3    39    40   am
     4    40    41    2
     5    40    42    1
     6    42    43    1
     7    43    44    1
     8    39     1    1
     9     1     2   ar
    10     2     3   ar
    11     3     8    1
    12     8     9   ar
    13     9    10   ar
    14    10    11   ar
    15    11    15    1
    16    15    16    1
    17    16    17    1
    18    17    18    1
    19    18    21    1
    20    21    22    1
    21    22    23    1
    22    23    24    1
    23    18    19    1
    24    19    20    1
    25    11    12   ar
    26    12    13   ar
    27    13    14    1
    28     3     4   ar
    29     4     5   ar
    30     5    25    1
    31    25    26    2
    32    25    27   am
    33    27    29    1
    34    29    30    1
    35    30    31    1
    36    31    32    1
    37    31    33    2
    38    33    34    1
    39    34    35    1
    40    34    36    2
    41    36    37    1
    42    37    38    2
    43     5     6   ar
    44     6     7    1
    45    44    42    1
    46     6     1   ar
    47    13     8   ar
    48    37    30    1
    49    20    15    1
    50    24    22    1
    51    27    28    1
@<TRIPOS>MOLECULE
*****
 46 51 0 0 0
SMALL
GASTEIGER

@<TRIPOS>ATOM
      1 C         139.5816  139.4229  156.2052 C.ar    1  UNL1        0.0500
      2 C         140.0001  139.7046  157.6178 C.ar    1  UNL1        0.0146
      3 C         139.0803  140.4515  158.5377 C.ar    1  UNL1        0.0025
      4 C         137.7421  140.9167  158.0449 C.ar    1  UNL1        0.0043
      5 C         137.3237  140.6350  156.6323 C.ar    1  UNL1        0.0506
      6 C         138.2434  139.8882  155.7124 C.ar    1  UNL1       -0.0038
      7 C         137.8250  139.6064  154.2997 C.3     1  UNL1        0.0325
      8 C         139.4987  140.7332  159.9504 C.ar    1  UNL1        0.0137
      9 C         140.0399  142.0832  160.3172 C.ar    1  UNL1        0.0040
     10 C         140.4583  142.3650  161.7298 C.ar    1  UNL1        0.0343
     11 C         140.3356  141.2967  162.7757 C.ar    1  UNL1        0.1313
     12 N         139.7944  139.9466  162.4088 N.ar    1  UNL1       -0.2350
     13 C         139.3760  139.6649  160.9961 C.ar    1  UNL1        0.0607
     14 C         138.8348  138.3149  160.6293 C.3     1  UNL1        0.0521
     15 N         140.7540  141.5784  164.1883 N.pl3   1  UNL1       -0.2904
     16 C         141.9953  140.9452  164.7433 C.3     1  UNL1        0.1095
     17 C         142.4138  141.2269  166.1559 C.3     1  UNL1        0.0939
     18 N         141.5908  142.1419  167.0136 N.3     1  UNL1       -0.2698
     19 C         140.3494  142.7752  166.4586 C.3     1  UNL1        0.0939
     20 C         139.9310  142.4934  165.0459 C.3     1  UNL1        0.1095
     21 C         142.0092  142.4237  168.4262 C.3     1  UNL1        0.0721
     22 C         141.0242  143.0007  169.3992 C.3     1  UNL1        0.0160
     23 C         140.3466  144.1916  170.0095 C.3     1  UNL1        0.0014
     24 C         139.9959  142.8092  170.4743 C.3     1  UNL1        0.0014
     25 C         135.9855  141.1003  156.1395 C.2     1  UNL1        0.2456
     26 O         135.8769  142.3726  155.3526 O.2     1  UNL1       -0.2702
     27 N         134.7559  140.2932  156.4337 N.am    1  UNL1       -0.3001
     28 H         134.8271  139.4581  156.9502 H       1  UNL1        0.1498
     29 C         133.4177  140.7584  155.9409 C.3     1  UNL1        0.1029
     30 C         132.1618  140.1758  156.5184 C.3     1  UNL1        0.1164
     31 C         130.8242  140.6967  156.0832 C.2     1  UNL1       -0.0330
     32 C         130.7424  141.8002  155.0704 C.3     1  UNL1        0.0269
     33 C         129.5684  140.1142  156.6607 C.2     1  UNL1        0.0042
     34 C         129.6502  139.0107  157.6735 C.2     1  UNL1        0.0508
     35 C         128.3944  138.4282  158.2510 C.3     1  UNL1        0.0493
     36 N         130.9878  138.4898  158.1088 N.am    1  UNL1       -0.1833
     37 C         132.2436  139.0724  157.5312 C.2     1  UNL1        0.2503
     38 O         133.5813  138.5515  157.9665 O.2     1  UNL1       -0.2726
     39 N         140.5014  138.6760  155.2853 N.am    1  UNL1       -0.2590
     40 C         140.2655  137.2209  155.0080 C.2     1  UNL1        0.2288
     41 O         139.1099  136.5126  155.6506 O.2     1  UNL1       -0.2745
     42 C         141.1853  136.4739  154.0880 C.3     1  UNL1        0.0771
     43 C         142.2408  135.4302  153.8727 C.3     1  UNL1        0.0096
     44 C         141.7228  136.2240  152.7101 C.3     1  UNL1        0.0096
     45 C         141.4622  140.1156  153.3477 C.3     1  UNL1        0.0237
     46 C         141.6570  139.3843  154.6427 C.3     1  UNL1        0.0982
@<TRIPOS>BOND
     1    45    46    1
     2    46    39    1
     3    39    40   am
     4    40    41    2
     5    40    42    1
     6    42    43    1
     7    43    44    1
     8    39     1    1
     9     1     2   ar
    10     2     3   ar
    11     3     8    1
    12     8     9   ar
    13     9    10   ar
    14    10    11   ar
    15    11    15    1
    16    15    16    1
    17    16    17    1
    18    17    18    1
    19    18    21    1
    20    21    22    1
    21    22    23    1
    22    23    24    1
    23    18    19    1
    24    19    20    1
    25    11    12   ar
    26    12    13   ar
    27    13    14    1
    28     3     4   ar
    29     4     5   ar
    30     5    25    1
    31    25    26    2
    32    25    27   am
    33    27    29    1
    34    29    30    1
    35    30    31    1
    36    31    32    1
    37    31    33    2
    38    33    34    1
    39    34    35    1
    40    34    36    2
    41    36    37    1
    42    37    38    2
    43     5     6   ar
    44     6     7    1
    45    44    42    1
    46     6     1   ar
    47    13     8   ar
    48    37    30    1
    49    20    15    1
    50    24    22    1
    51    27    28    1
@<TRIPOS>MOLECULE
*****
 46 51 0 0 0
SMALL
GASTEIGER

@<TRIPOS>ATOM
      1 C         141.0956  143.2579  159.3362 C.ar    1  UNL1        0.0500
      2 C         141.2790  141.7949  159.0607 C.ar    1  UNL1        0.0146
      3 C         141.5495  141.3231  157.6628 C.ar    1  UNL1        0.0025
      4 C         141.6365  142.3144  156.5404 C.ar    1  UNL1        0.0043
      5 C         141.4531  143.7774  156.8159 C.ar    1  UNL1        0.0506
      6 C         141.1826  144.2491  158.2138 C.ar    1  UNL1       -0.0038
      7 C         140.9990  145.7122  158.4894 C.3     1  UNL1        0.0325
      8 C         141.7330  139.8601  157.3873 C.ar    1  UNL1        0.0137
      9 C         140.5359  138.9783  157.1894 C.ar    1  UNL1        0.0040
     10 C         140.7193  137.5153  156.9139 C.ar    1  UNL1        0.0343
     11 C         142.1000  136.9340  156.8362 C.ar    1  UNL1        0.1313
     12 N         143.2972  137.8159  157.0340 N.ar    1  UNL1       -0.2350
     13 C         143.1137  139.2789  157.3096 C.ar    1  UNL1        0.0607
     14 C         144.3108  140.1608  157.5074 C.3     1  UNL1        0.0521
     15 N         142.2835  135.4710  156.5606 N.pl3   1  UNL1       -0.2904
     16 C         141.4704  134.8012  155.4928 C.3     1  UNL1        0.1095
     17 C         141.6538  133.3382  155.2173 C.3     1  UNL1        0.0939
     18 N         142.6504  132.5450  156.0096 N.3     1  UNL1       -0.2698
     19 C         143.4635  133.2148  157.0774 C.3     1  UNL1        0.0939
     20 C         143.2800  134.6779  157.3529 C.3     1  UNL1        0.1095
     21 C         142.8338  131.0820  155.7340 C.3     1  UNL1        0.0721
     22 C         143.3270  130.1706  156.8186 C.3     1  UNL1        0.0160
     23 C         144.1948  129.9295  158.0180 C.3     1  UNL1        0.0014
     24 C         143.3132  128.8332  157.4975 C.3     1  UNL1        0.0014
     25 C         141.5401  144.7686  155.6934 C.2     1  UNL1        0.2456
     26 O         142.8669  145.0748  155.0644 O.2     1  UNL1       -0.2702
     27 N         140.3002  145.4537  155.2000 N.am    1  UNL1       -0.3001
     28 H         139.4294  145.2527  155.6129 H       1  UNL1        0.1498
     29 C         140.3872  146.4449  154.0776 C.3     1  UNL1        0.1029
     30 C         139.9402  147.8608  154.2911 C.3     1  UNL1        0.1164
     31 C         140.3586  148.9326  153.3287 C.2     1  UNL1       -0.0330
     32 C         141.2241  148.5886  152.1529 C.3     1  UNL1        0.0269
     33 C         139.9116  150.3485  153.5422 C.2     1  UNL1        0.0042
     34 C         139.0461  150.6925  154.7180 C.2     1  UNL1        0.0508
     35 C         138.5990  152.1083  154.9315 C.3     1  UNL1        0.0493
     36 N         138.6276  149.6206  155.6804 N.am    1  UNL1       -0.1833
     37 C         139.0747  148.2048  155.4669 C.2     1  UNL1        0.2503
     38 O         138.6562  147.1330  156.4293 O.2     1  UNL1       -0.2726
     39 N         140.8250  143.7297  160.7342 N.am    1  UNL1       -0.2590
     40 C         139.4274  143.7017  161.2780 C.2     1  UNL1        0.2288
     41 O         138.3002  143.2019  160.4238 O.2     1  UNL1       -0.2745
     42 C         139.1569  144.1735  162.6760 C.3     1  UNL1        0.0771
     43 C         139.6334  144.8140  163.9459 C.3     1  UNL1        0.0096
     44 C         138.2118  144.3502  163.8274 C.3     1  UNL1        0.0096
     45 C         143.2789  143.5299  161.5641 C.3     1  UNL1        0.0237
     46 C         141.9522  144.2295  161.5884 C.3     1  UNL1        0.0982
@<TRIPOS>BOND
     1    45    46    1
     2    46    39    1
     3    39    40   am
     4    40    41    2
     5    40    42    1
     6    42    43    1
     7    43    44    1
     8    39     1    1
     9     1     2   ar
    10     2     3   ar
    11     3     8    1
    12     8     9   ar
    13     9    10   ar
    14    10    11   ar
    15    11    15    1
    16    15    16    1
    17    16    17    1
    18    17    18    1
    19    18    21    1
    20    21    22    1
    21    22    23    1
    22    23    24    1
    23    18    19    1
    24    19    20    1
    25    11    12   ar
    26    12    13   ar
    27    13    14    1
    28     3     4   ar
    29     4     5   ar
    30     5    25    1
    31    25    26    2
    32    25    27   am
    33    27    29    1
    34    29    30    1
    35    30    31    1
    36    31    32    1
    37    31    33    2
    38    33    34    1
    39    34    35    1
    40    34    36    2
    41    36    37    1
    42    37    38    2
    43     5     6   ar
    44     6     7    1
    45    44    42    1
    46     6     1   ar
    47    13     8   ar
    48    37    30    1
    49    20    15    1
    50    24    22    1
    51    27    28    1
@<TRIPOS>MOLECULE
*****
 46 51 0 0 0
SMALL
GASTEIGER

@<TRIPOS>ATOM
      1 C         140.5316  143.6210  156.3391 C.ar    1  UNL1        0.0500
      2 C         140.8713  142.1707  156.1625 C.ar    1  UNL1        0.0146
      3 C         141.0162  141.2829  157.3628 C.ar    1  UNL1        0.0025
      4 C         140.8214  141.8454  158.7396 C.ar    1  UNL1        0.0043
      5 C         140.4817  143.2957  158.9162 C.ar    1  UNL1        0.0506
      6 C         140.3369  144.1835  157.7159 C.ar    1  UNL1       -0.0038
      7 C         139.9972  145.6339  157.8924 C.3     1  UNL1        0.0325
      8 C         141.3559  139.8325  157.1863 C.ar    1  UNL1        0.0137
      9 C         140.2661  138.8315  156.9405 C.ar    1  UNL1        0.0040
     10 C         140.6057  137.3812  156.7640 C.ar    1  UNL1        0.0343
     11 C         142.0352  136.9318  156.8332 C.ar    1  UNL1        0.1313
     12 N         143.1250  137.9328  157.0790 N.ar    1  UNL1       -0.2350
     13 C         142.7853  139.3832  157.2555 C.ar    1  UNL1        0.0607
     14 C         143.8751  140.3842  157.5013 C.3     1  UNL1        0.0521
     15 N         142.3748  135.4815  156.6567 N.pl3   1  UNL1       -0.2904
     16 C         141.6947  134.6765  155.5893 C.3     1  UNL1        0.1095
     17 C         142.0343  133.2262  155.4128 C.3     1  UNL1        0.0939
     18 N         143.0541  132.5808  156.3037 N.3     1  UNL1       -0.2698
     19 C         143.7342  133.3859  157.3711 C.3     1  UNL1        0.0939
     20 C         143.3945  134.8363  157.5476 C.3     1  UNL1        0.1095
     21 C         143.3937  131.1305  156.1272 C.3     1  UNL1        0.0721
     22 C         143.7938  130.3041  157.3133 C.3     1  UNL1        0.0160
     23 C         143.4532  129.2887  158.3635 C.3     1  UNL1        0.0014
     24 C         144.8274  129.8883  158.3176 C.3     1  UNL1        0.0014
     25 C         140.2870  143.8581  160.2930 C.2     1  UNL1        0.2456
     26 O         138.9469  143.7616  160.9600 O.2     1  UNL1       -0.2702
     27 N         141.4322  144.5171  161.0030 N.am    1  UNL1       -0.3001
     28 H         142.3118  144.5804  160.5652 H       1  UNL1        0.1498
     29 C         141.2375  145.0796  162.3798 C.3     1  UNL1        0.1029
     30 C         141.4675  144.2139  163.5831 C.3     1  UNL1        0.1164
     31 C         140.3901  144.0634  164.6158 C.2     1  UNL1       -0.0330
     32 C         139.0826  144.7785  164.4453 C.3     1  UNL1        0.0269
     33 C         140.6201  143.1977  165.8190 C.2     1  UNL1        0.0042
     34 C         141.9276  142.4826  165.9895 C.2     1  UNL1        0.0508
     35 C         142.1577  141.6170  167.1927 C.3     1  UNL1        0.0493
     36 N         143.0051  142.6331  164.9567 N.am    1  UNL1       -0.1833
     37 C         142.7750  143.4987  163.7536 C.2     1  UNL1        0.2503
     38 O         143.8524  143.6493  162.7208 O.2     1  UNL1       -0.2726
     39 N         140.3867  144.5090  155.1388 N.am    1  UNL1       -0.2590
     40 C         141.5596  145.3057  154.6493 C.2     1  UNL1        0.2288
     41 O         142.8773  145.2146  155.3600 O.2     1  UNL1       -0.2745
     42 C         141.4147  146.1936  153.4490 C.3     1  UNL1        0.0771
     43 C         141.5764  146.4226  151.9754 C.3     1  UNL1        0.0096
     44 C         141.0019  147.5025  152.8436 C.3     1  UNL1        0.0096
     45 C         137.8257  144.9425  155.1941 C.3     1  UNL1        0.0237
     46 C         139.0690  144.6001  154.4280 C.3     1  UNL1        0.0982
@<TRIPOS>BOND
     1    45    46    1
     2    46    39    1
     3    39    40   am
     4    40    41    2
     5    40    42    1
     6    42    43    1
     7    43    44    1
     8    39     1    1
     9     1     2   ar
    10     2     3   ar
    11     3     8    1
    12     8     9   ar
    13     9    10   ar
    14    10    11   ar
    15    11    15    1
    16    15    16    1
    17    16    17    1
    18    17    18    1
    19    18    21    1
    20    21    22    1
    21    22    23    1
    22    23    24    1
    23    18    19    1
    24    19    20    1
    25    11    12   ar
    26    12    13   ar
    27    13    14    1
    28     3     4   ar
    29     4     5   ar
    30     5    25    1
    31    25    26    2
    32    25    27   am
    33    27    29    1
    34    29    30    1
    35    30    31    1
    36    31    32    1
    37    31    33    2
    38    33    34    1
    39    34    35    1
    40    34    36    2
    41    36    37    1
    42    37    38    2
    43     5     6   ar
    44     6     7    1
    45    44    42    1
    46     6     1   ar
    47    13     8   ar
    48    37    30    1
    49    20    15    1
    50    24    22    1
    51    27    28    1
@<TRIPOS>MOLECULE
*****
 46 51 0 0 0
SMALL
GASTEIGER

@<TRIPOS>ATOM
      1 C         141.5294  143.2532  159.2143 C.ar    1  UNL1        0.0500
      2 C         141.6257  141.7845  158.9253 C.ar    1  UNL1        0.0146
      3 C         141.7430  141.3051  157.5089 C.ar    1  UNL1        0.0025
      4 C         141.7641  142.2943  156.3815 C.ar    1  UNL1        0.0043
      5 C         141.6678  143.7630  156.6706 C.ar    1  UNL1        0.0506
      6 C         141.5505  144.2425  158.0870 C.ar    1  UNL1       -0.0038
      7 C         141.4542  145.7112  158.3761 C.3     1  UNL1        0.0325
      8 C         141.8393  139.8363  157.2198 C.ar    1  UNL1        0.0137
      9 C         140.5984  138.9941  157.1941 C.ar    1  UNL1        0.0040
     10 C         140.6946  137.5254  156.9050 C.ar    1  UNL1        0.0343
     11 C         142.0318  136.8988  156.6415 C.ar    1  UNL1        0.1313
     12 N         143.2728  137.7411  156.6672 N.ar    1  UNL1       -0.2350
     13 C         143.1765  139.2098  156.9563 C.ar    1  UNL1        0.0607
     14 C         144.4175  140.0521  156.9820 C.3     1  UNL1        0.0521
     15 N         142.1280  135.4301  156.3524 N.pl3   1  UNL1       -0.2904
     16 C         141.2698  134.8180  155.2853 C.3     1  UNL1        0.1095
     17 C         141.3661  133.3493  154.9962 C.3     1  UNL1        0.0939
     18 N         142.3205  132.4927  155.7743 N.3     1  UNL1       -0.2698
     19 C         143.1788  133.1048  156.8414 C.3     1  UNL1        0.0939
     20 C         143.0825  134.5736  157.1305 C.3     1  UNL1        0.1095
     21 C         142.4168  131.0240  155.4852 C.3     1  UNL1        0.0721
     22 C         141.2715  130.3123  154.8280 C.3     1  UNL1        0.0160
     23 C         139.9422  129.6242  154.9249 C.3     1  UNL1        0.0014
     24 C         140.6171  129.7678  153.5930 C.3     1  UNL1        0.0014
     25 C         141.6888  144.7522  155.5432 C.2     1  UNL1        0.2456
     26 O         142.9923  145.1417  154.9113 O.2     1  UNL1       -0.2702
     27 N         140.4064  145.3521  155.0477 N.am    1  UNL1       -0.3001
     28 H         139.5509  145.0965  155.4624 H       1  UNL1        0.1498
     29 C         140.4275  146.3413  153.9203 C.3     1  UNL1        0.1029
     30 C         139.9870  147.7558  154.1554 C.3     1  UNL1        0.1164
     31 C         140.3737  148.8328  153.1856 C.2     1  UNL1       -0.0330
     32 C         141.2008  148.4953  151.9806 C.3     1  UNL1        0.0269
     33 C         139.9333  150.2473  153.4207 C.2     1  UNL1        0.0042
     34 C         139.1062  150.5848  154.6256 C.2     1  UNL1        0.0508
     35 C         138.6658  151.9993  154.8608 C.3     1  UNL1        0.0493
     36 N         138.7195  149.5078  155.5955 N.am    1  UNL1       -0.1833
     37 C         139.1599  148.0934  155.3604 C.2     1  UNL1        0.2503
     38 O         138.7733  147.0163  156.3303 O.2     1  UNL1       -0.2726
     39 N         141.4121  143.7328  160.6308 N.am    1  UNL1       -0.2590
     40 C         142.6366  143.8385  161.4907 C.2     1  UNL1        0.2288
     41 O         143.9784  143.4647  160.9342 O.2     1  UNL1       -0.2745
     42 C         142.5193  144.3180  162.9072 C.3     1  UNL1        0.0771
     43 C         142.0412  144.1100  164.3136 C.3     1  UNL1        0.0096
     44 C         142.7941  145.3565  163.9541 C.3     1  UNL1        0.0096
     45 C         139.0360  143.0469  161.4269 C.3     1  UNL1        0.0237
     46 C         140.0703  144.1066  161.1874 C.3     1  UNL1        0.0982
@<TRIPOS>BOND
     1    45    46    1
     2    46    39    1
     3    39    40   am
     4    40    41    2
     5    40    42    1
     6    42    43    1
     7    43    44    1
     8    39     1    1
     9     1     2   ar
    10     2     3   ar
    11     3     8    1
    12     8     9   ar
    13     9    10   ar
    14    10    11   ar
    15    11    15    1
    16    15    16    1
    17    16    17    1
    18    17    18    1
    19    18    21    1
    20    21    22    1
    21    22    23    1
    22    23    24    1
    23    18    19    1
    24    19    20    1
    25    11    12   ar
    26    12    13   ar
    27    13    14    1
    28     3     4   ar
    29     4     5   ar
    30     5    25    1
    31    25    26    2
    32    25    27   am
    33    27    29    1
    34    29    30    1
    35    30    31    1
    36    31    32    1
    37    31    33    2
    38    33    34    1
    39    34    35    1
    40    34    36    2
    41    36    37    1
    42    37    38    2
    43     5     6   ar
    44     6     7    1
    45    44    42    1
    46     6     1   ar
    47    13     8   ar
    48    37    30    1
    49    20    15    1
    50    24    22    1
    51    27    28    1
@<TRIPOS>MOLECULE
*****
 46 51 0 0 0
SMALL
GASTEIGER

@<TRIPOS>ATOM
      1 C         140.9809  143.6866  157.1205 C.ar    1  UNL1        0.0500
      2 C         141.2712  142.2621  156.7511 C.ar    1  UNL1        0.0146
      3 C         141.0729  141.1703  157.7603 C.ar    1  UNL1        0.0025
      4 C         140.5843  141.5029  159.1389 C.ar    1  UNL1        0.0043
      5 C         140.2940  142.9274  159.5083 C.ar    1  UNL1        0.0506
      6 C         140.4922  144.0192  158.4991 C.ar    1  UNL1       -0.0038
      7 C         140.2019  145.4438  158.8685 C.3     1  UNL1        0.0325
      8 C         141.3633  139.7457  157.3909 C.ar    1  UNL1        0.0137
      9 C         140.2761  138.8813  156.8244 C.ar    1  UNL1        0.0040
     10 C         140.5664  137.4568  156.4551 C.ar    1  UNL1        0.0343
     11 C         141.9440  136.8967  156.6521 C.ar    1  UNL1        0.1313
     12 N         143.0311  137.7611  157.2185 N.ar    1  UNL1       -0.2350
     13 C         142.7408  139.1857  157.5879 C.ar    1  UNL1        0.0607
     14 C         143.8279  140.0501  158.1543 C.3     1  UNL1        0.0521
     15 N         142.2342  135.4722  156.2827 N.pl3   1  UNL1       -0.2904
     16 C         143.4429  134.7833  156.8435 C.3     1  UNL1        0.1095
     17 C         143.7332  133.3588  156.4741 C.3     1  UNL1        0.0939
     18 N         142.8148  132.6231  155.5438 N.3     1  UNL1       -0.2698
     19 C         141.6061  133.3120  154.9830 C.3     1  UNL1        0.0939
     20 C         141.3158  134.7366  155.3525 C.3     1  UNL1        0.1095
     21 C         143.1051  131.1986  155.1744 C.3     1  UNL1        0.0721
     22 C         143.5823  130.2349  156.2202 C.3     1  UNL1        0.0160
     23 C         144.5468  129.1774  156.6688 C.3     1  UNL1        0.0014
     24 C         143.4443  129.6234  157.5829 C.3     1  UNL1        0.0014
     25 C         139.8053  143.2600  160.8869 C.2     1  UNL1        0.2456
     26 O         140.7552  143.8176  161.9051 O.2     1  UNL1       -0.2702
     27 N         138.3668  143.0351  161.2474 N.am    1  UNL1       -0.3001
     28 H         137.7433  142.6691  160.5791 H       1  UNL1        0.1498
     29 C         137.8782  143.3677  162.6260 C.3     1  UNL1        0.1029
     30 C         138.3749  142.5868  163.8065 C.3     1  UNL1        0.1164
     31 C         139.0367  143.2963  164.9504 C.2     1  UNL1       -0.0330
     32 C         139.2018  144.7868  164.9139 C.3     1  UNL1        0.0269
     33 C         139.5334  142.5154  166.1309 C.2     1  UNL1        0.0042
     34 C         139.3683  141.0250  166.1674 C.2     1  UNL1        0.0508
     35 C         139.8649  140.2441  167.3478 C.3     1  UNL1        0.0493
     36 N         138.7064  140.3155  165.0234 N.am    1  UNL1       -0.1833
     37 C         138.2097  141.0964  163.8430 C.2     1  UNL1        0.2503
     38 O         137.5479  140.3868  162.6990 O.2     1  UNL1       -0.2726
     39 N         141.1792  144.7786  156.1113 N.am    1  UNL1       -0.2590
     40 C         139.9913  145.4227  155.4601 C.2     1  UNL1        0.2288
     41 O         138.6052  144.9750  155.8180 O.2     1  UNL1       -0.2745
     42 C         140.1896  146.5146  154.4509 C.3     1  UNL1        0.0771
     43 C         139.9879  147.9370  154.0194 C.3     1  UNL1        0.0096
     44 C         140.7347  146.9835  153.1344 C.3     1  UNL1        0.0096
     45 C         143.2848  144.5902  154.6011 C.3     1  UNL1        0.0237
     46 C         142.5653  145.2263  155.7533 C.3     1  UNL1        0.0982
@<TRIPOS>BOND
     1    45    46    1
     2    46    39    1
     3    39    40   am
     4    40    41    2
     5    40    42    1
     6    42    43    1
     7    43    44    1
     8    39     1    1
     9     1     2   ar
    10     2     3   ar
    11     3     8    1
    12     8     9   ar
    13     9    10   ar
    14    10    11   ar
    15    11    15    1
    16    15    16    1
    17    16    17    1
    18    17    18    1
    19    18    21    1
    20    21    22    1
    21    22    23    1
    22    23    24    1
    23    18    19    1
    24    19    20    1
    25    11    12   ar
    26    12    13   ar
    27    13    14    1
    28     3     4   ar
    29     4     5   ar
    30     5    25    1
    31    25    26    2
    32    25    27   am
    33    27    29    1
    34    29    30    1
    35    30    31    1
    36    31    32    1
    37    31    33    2
    38    33    34    1
    39    34    35    1
    40    34    36    2
    41    36    37    1
    42    37    38    2
    43     5     6   ar
    44     6     7    1
    45    44    42    1
    46     6     1   ar
    47    13     8   ar
    48    37    30    1
    49    20    15    1
    50    24    22    1
    51    27    28    1
@<TRIPOS>MOLECULE
*****
 46 51 0 0 0
SMALL
GASTEIGER

@<TRIPOS>ATOM
      1 C         140.6111  140.0429  158.4116 C.ar    1  UNL1        0.0500
      2 C         140.5446  141.3578  157.6929 C.ar    1  UNL1        0.0146
      3 C         139.7434  142.4876  158.2687 C.ar    1  UNL1        0.0025
      4 C         139.0086  142.3025  159.5632 C.ar    1  UNL1        0.0043
      5 C         139.0751  140.9876  160.2820 C.ar    1  UNL1        0.0506
      6 C         139.8763  139.8578  159.7062 C.ar    1  UNL1       -0.0038
      7 C         139.9427  138.5429  160.4249 C.3     1  UNL1        0.0325
      8 C         139.6770  143.8025  157.5499 C.ar    1  UNL1        0.0137
      9 C         138.7831  143.9601  156.3557 C.ar    1  UNL1        0.0040
     10 C         138.7166  145.2750  155.6369 C.ar    1  UNL1        0.0343
     11 C         139.5440  146.4324  156.1124 C.ar    1  UNL1        0.1313
     12 N         140.4379  146.2748  157.3066 N.ar    1  UNL1       -0.2350
     13 C         140.5043  144.9598  158.0254 C.ar    1  UNL1        0.0607
     14 C         141.3982  144.8022  159.2196 C.3     1  UNL1        0.0521
     15 N         139.4775  147.7472  155.3936 N.pl3   1  UNL1       -0.2904
     16 C         138.7708  148.9111  156.0229 C.3     1  UNL1        0.1095
     17 C         138.7043  150.2259  155.3042 C.3     1  UNL1        0.0939
     18 N         139.3446  150.3770  153.9561 N.3     1  UNL1       -0.2698
     19 C         140.0513  149.2132  153.3268 C.3     1  UNL1        0.0939
     20 C         140.1177  147.8982  154.0456 C.3     1  UNL1        0.1095
     21 C         139.2781  151.6919  153.2373 C.3     1  UNL1        0.0721
     22 C         138.6590  152.8825  153.9075 C.3     1  UNL1        0.0160
     23 C         137.9222  154.1860  153.8185 C.3     1  UNL1        0.0014
     24 C         138.3235  153.6412  155.1572 C.3     1  UNL1        0.0014
     25 C         138.3403  140.8025  161.5765 C.2     1  UNL1        0.2456
     26 O         136.9764  140.1783  161.5821 O.2     1  UNL1       -0.2702
     27 N         138.9694  141.2417  162.8654 N.am    1  UNL1       -0.3001
     28 H         139.8646  141.6514  162.8617 H       1  UNL1        0.1498
     29 C         138.2346  141.0566  164.1600 C.3     1  UNL1        0.1029
     30 C         138.9769  141.1328  165.4612 C.3     1  UNL1        0.1164
     31 C         138.9324  139.9792  166.4188 C.2     1  UNL1       -0.0330
     32 C         138.1455  138.7492  166.0752 C.3     1  UNL1        0.0269
     33 C         139.6747  140.0554  167.7201 C.2     1  UNL1        0.0042
     34 C         140.4615  141.2854  168.0637 C.2     1  UNL1        0.0508
     35 C         141.2038  141.3617  169.3649 C.3     1  UNL1        0.0493
     36 N         140.5061  142.4391  167.1060 N.am    1  UNL1       -0.1833
     37 C         139.7638  142.3628  165.8048 C.2     1  UNL1        0.2503
     38 O         139.8083  143.5165  164.8472 O.2     1  UNL1       -0.2726
     39 N         141.4123  138.9130  157.8359 N.am    1  UNL1       -0.2590
     40 C         140.7312  137.8407  157.0383 C.2     1  UNL1        0.2288
     41 O         139.2488  137.8982  156.8164 O.2     1  UNL1       -0.2745
     42 C         141.5324  136.7108  156.4625 C.3     1  UNL1        0.0771
     43 C         141.9613  135.8926  155.2808 C.3     1  UNL1        0.0096
     44 C         142.4913  135.5722  156.6469 C.3     1  UNL1        0.0096
     45 C         143.4635  139.1697  159.4096 C.3     1  UNL1        0.0237
     46 C         142.8947  138.8555  158.0577 C.3     1  UNL1        0.0982
@<TRIPOS>BOND
     1    45    46    1
     2    46    39    1
     3    39    40   am
     4    40    41    2
     5    40    42    1
     6    42    43    1
     7    43    44    1
     8    39     1    1
     9     1     2   ar
    10     2     3   ar
    11     3     8    1
    12     8     9   ar
    13     9    10   ar
    14    10    11   ar
    15    11    15    1
    16    15    16    1
    17    16    17    1
    18    17    18    1
    19    18    21    1
    20    21    22    1
    21    22    23    1
    22    23    24    1
    23    18    19    1
    24    19    20    1
    25    11    12   ar
    26    12    13   ar
    27    13    14    1
    28     3     4   ar
    29     4     5   ar
    30     5    25    1
    31    25    26    2
    32    25    27   am
    33    27    29    1
    34    29    30    1
    35    30    31    1
    36    31    32    1
    37    31    33    2
    38    33    34    1
    39    34    35    1
    40    34    36    2
    41    36    37    1
    42    37    38    2
    43     5     6   ar
    44     6     7    1
    45    44    42    1
    46     6     1   ar
    47    13     8   ar
    48    37    30    1
    49    20    15    1
    50    24    22    1
    51    27    28    1
