@<TRIPOS>MOLECULE
*****
 35 39 0 0 0
SMALL
GASTEIGER

@<TRIPOS>ATOM
      1 O         138.9075  143.6654  159.9947 O.2     1  UNL1       -0.2489
      2 C         140.2989  144.1821  160.2116 C.2     1  UNL1        0.3237
      3 N         140.9966  144.9387  159.1204 N.am    1  UNL1       -0.2657
      4 N         140.9927  143.9422  161.5197 N.ar    1  UNL1       -0.2609
      5 C         142.3762  144.3959  161.8802 C.ar    1  UNL1        0.0842
      6 C         142.6633  143.9406  163.2803 C.ar    1  UNL1        0.0207
      7 C         141.4572  143.2055  163.7851 C.ar    1  UNL1        0.0208
      8 C         141.1657  142.5353  165.0951 C.ar    1  UNL1        0.0390
      9 C         139.8417  141.8662  165.3169 C.ar    1  UNL1        0.1473
     10 C         138.8092  141.8672  164.2288 C.ar    1  UNL1        0.0390
     11 C         139.1007  142.5373  162.9189 C.ar    1  UNL1        0.0208
     12 C         140.4247  143.2065  162.6970 C.ar    1  UNL1        0.0683
     13 H         141.9098  145.2778  159.2627 H       1  UNL1        0.1566
     14 C         140.3029  145.1786  157.8123 C.ar    1  UNL1        0.0517
     15 C         139.9926  144.0249  156.9052 C.ar    1  UNL1        0.0147
     16 C         139.2989  144.2647  155.5970 C.ar    1  UNL1        0.0012
     17 C         138.9154  145.6583  155.1959 C.ar    1  UNL1        0.0039
     18 C         139.2256  146.8120  156.1029 C.ar    1  UNL1        0.0727
     19 C         139.9194  146.5721  157.4111 C.ar    1  UNL1        0.0186
     20 C         138.8421  148.2056  155.7018 C.3     1  UNL1        0.4186
     21 F         138.4586  149.5992  155.3007 F       1  UNL1       -0.1659
     22 F         139.2237  147.9022  154.2832 F       1  UNL1       -0.1659
     23 F         138.4606  148.5088  157.1205 F       1  UNL1       -0.1659
     24 O         139.5502  141.1960  166.6268 O.3     1  UNL1       -0.4363
     25 C         140.6759  140.6699  167.4670 C.ar    1  UNL1        0.2282
     26 N         141.6294  139.6619  166.8972 N.ar    1  UNL1       -0.1893
     27 C         142.7552  139.1357  167.7374 C.ar    1  UNL1        0.2012
     28 N         142.9274  139.6176  169.1474 N.ar    1  UNL1       -0.2271
     29 C         141.9738  140.6257  169.7172 C.ar    1  UNL1        0.0772
     30 C         140.8481  141.1518  168.8771 C.ar    1  UNL1        0.0477
     31 C         139.8946  142.1598  169.4468 C.3     1  UNL1        0.0494
     32 C         140.0668  142.6417  170.8568 C.3     1  UNL1        0.0738
     33 N         141.1925  142.1155  171.6970 N.3     1  UNL1       -0.2922
     34 C         142.1460  141.1075  171.1272 C.3     1  UNL1        0.1150
     35 H         140.7700  141.6881  172.5212 H       1  UNL1        0.1236
@<TRIPOS>BOND
     1     1     2    2
     2     2     3   am
     3     3    14    1
     4    14    15   ar
     5    15    16   ar
     6    16    17   ar
     7    17    18   ar
     8    18    20    1
     9    20    21    1
    10    20    22    1
    11    20    23    1
    12    18    19   ar
    13     2     4   am
    14     4     5   ar
    15     5     6   ar
    16     6     7   ar
    17     7     8   ar
    18     8     9   ar
    19     9    24    1
    20    24    25    1
    21    25    26   ar
    22    26    27   ar
    23    27    28   ar
    24    28    29   ar
    25    29    30   ar
    26    30    31    1
    27    31    32    1
    28    32    33    1
    29    33    34    1
    30     9    10   ar
    31    10    11   ar
    32    11    12   ar
    33    19    14   ar
    34    12     4   ar
    35    12     7   ar
    36    30    25   ar
    37    34    29    1
    38     3    13    1
    39    33    35    1
@<TRIPOS>MOLECULE
*****
 35 39 0 0 0
SMALL
GASTEIGER

@<TRIPOS>ATOM
      1 O         141.4336  139.2400  164.2494 O.2     1  UNL1       -0.2489
      2 C         140.7830  140.4413  163.6301 C.2     1  UNL1        0.3237
      3 N         140.0519  141.4266  164.4931 N.am    1  UNL1       -0.2657
      4 N         140.8634  140.6574  162.1479 N.ar    1  UNL1       -0.2609
      5 C         140.2652  141.8057  161.3906 C.ar    1  UNL1        0.0842
      6 C         140.5882  141.6211  159.9374 C.ar    1  UNL1        0.0207
      7 C         141.3859  140.3587  159.7968 C.ar    1  UNL1        0.0208
      8 C         141.9795  139.6745  158.6010 C.ar    1  UNL1        0.0390
      9 C         142.7431  138.3947  158.7715 C.ar    1  UNL1        0.1473
     10 C         142.9131  137.7991  160.1377 C.ar    1  UNL1        0.0390
     11 C         142.3196  138.4833  161.3334 C.ar    1  UNL1        0.0208
     12 C         141.5560  139.7631  161.1629 C.ar    1  UNL1        0.0683
     13 H         139.6249  142.2151  164.0867 H       1  UNL1        0.1566
     14 C         139.9715  141.2106  165.9752 C.ar    1  UNL1        0.0517
     15 C         139.2349  140.0234  166.5213 C.ar    1  UNL1        0.0147
     16 C         139.1545  139.8073  168.0034 C.ar    1  UNL1        0.0012
     17 C         139.8105  140.7785  168.9396 C.ar    1  UNL1        0.0039
     18 C         140.5471  141.9657  168.3937 C.ar    1  UNL1        0.0727
     19 C         140.6276  142.1817  166.9114 C.ar    1  UNL1        0.0186
     20 C         141.2031  142.9368  169.3299 C.3     1  UNL1        0.4186
     21 F         141.8592  143.9080  170.2661 F       1  UNL1       -0.1659
     22 F         142.2908  141.9402  169.6015 F       1  UNL1       -0.1659
     23 F         140.1154  143.9334  169.0582 F       1  UNL1       -0.1659
     24 O         143.3366  137.7105  157.5759 O.3     1  UNL1       -0.4363
     25 C         142.4426  137.0457  156.5716 C.ar    1  UNL1        0.2282
     26 N         141.5924  137.8775  155.6576 N.ar    1  UNL1       -0.1893
     27 C         140.6984  137.2127  154.6533 C.ar    1  UNL1        0.2012
     28 N         140.6545  135.7161  154.5629 N.ar    1  UNL1       -0.2271
     29 C         141.5046  134.8842  155.4769 C.ar    1  UNL1        0.0772
     30 C         142.3987  135.5490  156.4812 C.ar    1  UNL1        0.0477
     31 C         143.2488  134.7172  157.3951 C.3     1  UNL1        0.0494
     32 C         143.2049  133.2206  157.3047 C.3     1  UNL1        0.0738
     33 N         142.3108  132.5558  156.3004 N.3     1  UNL1       -0.2922
     34 C         141.4607  133.3876  155.3865 C.3     1  UNL1        0.1150
     35 H         141.6768  131.9525  156.8243 H       1  UNL1        0.1236
@<TRIPOS>BOND
     1     1     2    2
     2     2     3   am
     3     3    14    1
     4    14    15   ar
     5    15    16   ar
     6    16    17   ar
     7    17    18   ar
     8    18    20    1
     9    20    21    1
    10    20    22    1
    11    20    23    1
    12    18    19   ar
    13     2     4   am
    14     4     5   ar
    15     5     6   ar
    16     6     7   ar
    17     7     8   ar
    18     8     9   ar
    19     9    24    1
    20    24    25    1
    21    25    26   ar
    22    26    27   ar
    23    27    28   ar
    24    28    29   ar
    25    29    30   ar
    26    30    31    1
    27    31    32    1
    28    32    33    1
    29    33    34    1
    30     9    10   ar
    31    10    11   ar
    32    11    12   ar
    33    19    14   ar
    34    12     4   ar
    35    12     7   ar
    36    30    25   ar
    37    34    29    1
    38     3    13    1
    39    33    35    1
@<TRIPOS>MOLECULE
*****
 35 39 0 0 0
SMALL
GASTEIGER

@<TRIPOS>ATOM
      1 O         143.6687  138.3945  160.1183 O.2     1  UNL1       -0.2489
      2 C         142.5617  139.2578  159.5897 C.2     1  UNL1        0.3237
      3 N         142.1344  139.1358  158.1571 N.am    1  UNL1       -0.2657
      4 N         141.8820  140.2431  160.4937 N.ar    1  UNL1       -0.2609
      5 C         140.7659  141.1684  160.1090 C.ar    1  UNL1        0.0842
      6 C         140.3932  141.9732  161.3188 C.ar    1  UNL1        0.0207
      7 C         141.2791  141.5453  162.4511 C.ar    1  UNL1        0.0208
      8 C         141.3667  141.9912  163.8806 C.ar    1  UNL1        0.0390
      9 C         142.3744  141.3677  164.8003 C.ar    1  UNL1        0.1473
     10 C         143.2946  140.2984  164.2903 C.ar    1  UNL1        0.0390
     11 C         143.2069  139.8525  162.8608 C.ar    1  UNL1        0.0208
     12 C         142.1992  140.4760  161.9412 C.ar    1  UNL1        0.0683
     13 H         141.4078  139.7024  157.8101 H       1  UNL1        0.1566
     14 C         142.8140  138.1505  157.2530 C.ar    1  UNL1        0.0517
     15 C         143.7603  138.6332  156.1939 C.ar    1  UNL1        0.0147
     16 C         144.4399  137.6480  155.2898 C.ar    1  UNL1        0.0012
     17 C         144.1733  136.1801  155.4447 C.ar    1  UNL1        0.0039
     18 C         143.2270  135.6973  156.5037 C.ar    1  UNL1        0.0727
     19 C         142.5474  136.6826  157.4079 C.ar    1  UNL1        0.0186
     20 C         142.9604  134.2293  156.6586 C.3     1  UNL1        0.4186
     21 F         142.6938  132.7613  156.8135 F       1  UNL1       -0.1659
     22 F         144.2991  134.0552  157.3126 F       1  UNL1       -0.1659
     23 F         141.6217  134.4035  156.0046 F       1  UNL1       -0.1659
     24 O         142.4621  141.8135  166.2298 O.3     1  UNL1       -0.4363
     25 C         141.5217  141.2461  167.2514 C.ar    1  UNL1        0.2282
     26 N         140.4111  140.3334  166.8233 N.ar    1  UNL1       -0.1893
     27 C         139.4706  139.7660  167.8449 C.ar    1  UNL1        0.2012
     28 N         139.6409  140.1114  169.2946 N.ar    1  UNL1       -0.2271
     29 C         140.7515  141.0242  169.7228 C.ar    1  UNL1        0.0772
     30 C         141.6919  141.5916  168.7011 C.ar    1  UNL1        0.0477
     31 C         142.8026  142.5043  169.1292 C.3     1  UNL1        0.0494
     32 C         142.9728  142.8497  170.5789 C.3     1  UNL1        0.0738
     33 N         142.0324  142.2823  171.6006 N.3     1  UNL1       -0.2922
     34 C         140.9217  141.3696  171.1725 C.3     1  UNL1        0.1150
     35 H         141.5968  143.0750  172.0722 H       1  UNL1        0.1236
@<TRIPOS>BOND
     1     1     2    2
     2     2     3   am
     3     3    14    1
     4    14    15   ar
     5    15    16   ar
     6    16    17   ar
     7    17    18   ar
     8    18    20    1
     9    20    21    1
    10    20    22    1
    11    20    23    1
    12    18    19   ar
    13     2     4   am
    14     4     5   ar
    15     5     6   ar
    16     6     7   ar
    17     7     8   ar
    18     8     9   ar
    19     9    24    1
    20    24    25    1
    21    25    26   ar
    22    26    27   ar
    23    27    28   ar
    24    28    29   ar
    25    29    30   ar
    26    30    31    1
    27    31    32    1
    28    32    33    1
    29    33    34    1
    30     9    10   ar
    31    10    11   ar
    32    11    12   ar
    33    19    14   ar
    34    12     4   ar
    35    12     7   ar
    36    30    25   ar
    37    34    29    1
    38     3    13    1
    39    33    35    1
@<TRIPOS>MOLECULE
*****
 35 39 0 0 0
SMALL
GASTEIGER

@<TRIPOS>ATOM
      1 O         141.7306  144.7685  159.8202 O.2     1  UNL1       -0.2489
      2 C         140.3765  144.1234  159.8012 C.2     1  UNL1        0.3237
      3 N         139.5826  144.0834  158.5292 N.am    1  UNL1       -0.2657
      4 N         139.8164  143.5182  161.0542 N.ar    1  UNL1       -0.2609
      5 C         138.4838  142.8426  161.1877 C.ar    1  UNL1        0.0842
      6 C         138.3344  142.3893  162.6098 C.ar    1  UNL1        0.0207
      7 C         139.5745  142.7848  163.3551 C.ar    1  UNL1        0.0208
      8 C         139.9881  142.5998  164.7851 C.ar    1  UNL1        0.0390
      9 C         141.3176  143.1125  165.2536 C.ar    1  UNL1        0.1473
     10 C         142.2336  143.8102  164.2922 C.ar    1  UNL1        0.0390
     11 C         141.8200  143.9952  162.8623 C.ar    1  UNL1        0.0208
     12 C         140.4904  143.4825  162.3938 C.ar    1  UNL1        0.0683
     13 H         138.6938  143.6600  158.5168 H       1  UNL1        0.1566
     14 C         140.1426  144.6885  157.2762 C.ar    1  UNL1        0.0517
     15 C         141.2307  143.9818  156.5234 C.ar    1  UNL1        0.0147
     16 C         141.7908  144.5868  155.2704 C.ar    1  UNL1        0.0012
     17 C         141.2629  145.8986  154.7700 C.ar    1  UNL1        0.0039
     18 C         140.1748  146.6054  155.5226 C.ar    1  UNL1        0.0727
     19 C         139.6146  146.0003  156.7758 C.ar    1  UNL1        0.0186
     20 C         139.6468  147.9172  155.0223 C.3     1  UNL1        0.4186
     21 F         139.1187  149.2291  154.5219 F       1  UNL1       -0.1659
     22 F         140.3687  147.7123  153.7235 F       1  UNL1       -0.1659
     23 F         138.9248  148.1220  156.3211 F       1  UNL1       -0.1659
     24 O         141.7312  142.9274  166.6835 O.3     1  UNL1       -0.4363
     25 C         142.1783  141.5795  167.1666 C.ar    1  UNL1        0.2282
     26 N         142.6099  140.5347  166.1807 N.ar    1  UNL1       -0.1893
     27 C         143.0569  139.1869  166.6637 C.ar    1  UNL1        0.2012
     28 N         143.0725  138.8838  168.1326 N.ar    1  UNL1       -0.2271
     29 C         142.6409  139.9286  169.1187 C.ar    1  UNL1        0.0772
     30 C         142.1938  141.2765  168.6356 C.ar    1  UNL1        0.0477
     31 C         141.7622  142.3213  169.6215 C.3     1  UNL1        0.0494
     32 C         141.7777  142.0182  171.0905 C.3     1  UNL1        0.0738
     33 N         142.2248  140.6703  171.5735 N.3     1  UNL1       -0.2922
     34 C         142.6564  139.6255  170.5876 C.3     1  UNL1        0.1150
     35 H         141.4472  140.2739  172.1013 H       1  UNL1        0.1236
@<TRIPOS>BOND
     1     1     2    2
     2     2     3   am
     3     3    14    1
     4    14    15   ar
     5    15    16   ar
     6    16    17   ar
     7    17    18   ar
     8    18    20    1
     9    20    21    1
    10    20    22    1
    11    20    23    1
    12    18    19   ar
    13     2     4   am
    14     4     5   ar
    15     5     6   ar
    16     6     7   ar
    17     7     8   ar
    18     8     9   ar
    19     9    24    1
    20    24    25    1
    21    25    26   ar
    22    26    27   ar
    23    27    28   ar
    24    28    29   ar
    25    29    30   ar
    26    30    31    1
    27    31    32    1
    28    32    33    1
    29    33    34    1
    30     9    10   ar
    31    10    11   ar
    32    11    12   ar
    33    19    14   ar
    34    12     4   ar
    35    12     7   ar
    36    30    25   ar
    37    34    29    1
    38     3    13    1
    39    33    35    1
@<TRIPOS>MOLECULE
*****
 35 39 0 0 0
SMALL
GASTEIGER

@<TRIPOS>ATOM
      1 O         142.7927  140.1382  164.7896 O.2     1  UNL1       -0.2489
      2 C         141.3704  139.6737  164.6822 C.2     1  UNL1        0.3237
      3 N         140.4691  139.7350  165.8797 N.am    1  UNL1       -0.2657
      4 N         140.8495  139.1480  163.3775 N.ar    1  UNL1       -0.2609
      5 C         139.4580  138.6507  163.1198 C.ar    1  UNL1        0.0842
      6 C         139.3772  138.2227  161.6845 C.ar    1  UNL1        0.0207
      7 C         140.7187  138.4555  161.0551 C.ar    1  UNL1        0.0208
      8 C         141.2292  138.2206  159.6643 C.ar    1  UNL1        0.0390
      9 C         142.6497  138.5576  159.3199 C.ar    1  UNL1        0.1473
     10 C         143.5597  139.1295  160.3664 C.ar    1  UNL1        0.0390
     11 C         143.0491  139.3644  161.7571 C.ar    1  UNL1        0.0208
     12 C         141.6286  139.0274  162.1015 C.ar    1  UNL1        0.0683
     13 H         139.5357  139.4301  165.8092 H       1  UNL1        0.1566
     14 C         140.9899  140.2606  167.1844 C.ar    1  UNL1        0.0517
     15 C         141.9887  139.4629  167.9693 C.ar    1  UNL1        0.0147
     16 C         142.5096  139.9885  169.2741 C.ar    1  UNL1        0.0012
     17 C         142.0318  141.3119  169.7940 C.ar    1  UNL1        0.0039
     18 C         141.0330  142.1097  169.0091 C.ar    1  UNL1        0.0727
     19 C         140.5121  141.5840  167.7042 C.ar    1  UNL1        0.0186
     20 C         140.5551  143.4331  169.5289 C.3     1  UNL1        0.4186
     21 F         140.0772  144.7565  170.0488 F       1  UNL1       -0.1659
     22 F         141.0471  143.0724  170.8993 F       1  UNL1       -0.1659
     23 F         140.0632  143.7937  168.1585 F       1  UNL1       -0.1659
     24 O         143.1603  138.3227  157.9292 O.3     1  UNL1       -0.4363
     25 C         142.2502  137.7513  156.8827 C.ar    1  UNL1        0.2282
     26 N         141.3209  138.6518  156.1242 N.ar    1  UNL1       -0.1893
     27 C         140.4108  138.0803  155.0776 C.ar    1  UNL1        0.2012
     28 N         140.4300  136.6084  154.7897 N.ar    1  UNL1       -0.2271
     29 C         141.3594  135.7078  155.5482 C.ar    1  UNL1        0.0772
     30 C         142.2694  136.2792  156.5948 C.ar    1  UNL1        0.0477
     31 C         143.1987  135.3787  157.3533 C.3     1  UNL1        0.0494
     32 C         143.2180  133.9068  157.0653 C.3     1  UNL1        0.0738
     33 N         142.3079  133.3354  156.0188 N.3     1  UNL1       -0.2922
     34 C         141.3786  134.2359  155.2603 C.3     1  UNL1        0.1150
     35 H         141.7274  132.6369  156.4830 H       1  UNL1        0.1236
@<TRIPOS>BOND
     1     1     2    2
     2     2     3   am
     3     3    14    1
     4    14    15   ar
     5    15    16   ar
     6    16    17   ar
     7    17    18   ar
     8    18    20    1
     9    20    21    1
    10    20    22    1
    11    20    23    1
    12    18    19   ar
    13     2     4   am
    14     4     5   ar
    15     5     6   ar
    16     6     7   ar
    17     7     8   ar
    18     8     9   ar
    19     9    24    1
    20    24    25    1
    21    25    26   ar
    22    26    27   ar
    23    27    28   ar
    24    28    29   ar
    25    29    30   ar
    26    30    31    1
    27    31    32    1
    28    32    33    1
    29    33    34    1
    30     9    10   ar
    31    10    11   ar
    32    11    12   ar
    33    19    14   ar
    34    12     4   ar
    35    12     7   ar
    36    30    25   ar
    37    34    29    1
    38     3    13    1
    39    33    35    1
@<TRIPOS>MOLECULE
*****
 35 39 0 0 0
SMALL
GASTEIGER

@<TRIPOS>ATOM
      1 O         141.1381  138.7155  163.7125 O.2     1  UNL1       -0.2489
      2 C         139.9519  139.3277  163.0281 C.2     1  UNL1        0.3237
      3 N         138.8643  139.9660  163.8404 N.am    1  UNL1       -0.2657
      4 N         139.8532  139.3016  161.5316 N.ar    1  UNL1       -0.2609
      5 C         138.7333  139.8703  160.7117 C.ar    1  UNL1        0.0842
      6 C         139.0452  139.6223  159.2656 C.ar    1  UNL1        0.0207
      7 C         140.3579  138.9004  159.1918 C.ar    1  UNL1        0.0208
      8 C         141.1630  138.3979  158.0301 C.ar    1  UNL1        0.0390
      9 C         142.4676  137.6971  158.2690 C.ar    1  UNL1        0.1473
     10 C         142.9670  137.4989  159.6695 C.ar    1  UNL1        0.0390
     11 C         142.1619  138.0014  160.8311 C.ar    1  UNL1        0.0208
     12 C         140.8573  138.7022  160.5922 C.ar    1  UNL1        0.0683
     13 H         138.0858  140.3678  163.3912 H       1  UNL1        0.1566
     14 C         138.9629  139.9922  165.3369 C.ar    1  UNL1        0.0517
     15 C         138.1538  139.0330  166.1587 C.ar    1  UNL1        0.0147
     16 C         138.2523  139.0590  167.6552 C.ar    1  UNL1        0.0012
     17 C         139.1598  140.0444  168.3300 C.ar    1  UNL1        0.0039
     18 C         139.9690  141.0036  167.5083 C.ar    1  UNL1        0.0727
     19 C         139.8705  140.9775  166.0117 C.ar    1  UNL1        0.0186
     20 C         140.8765  141.9890  168.1831 C.3     1  UNL1        0.4186
     21 F         141.7842  142.9743  168.8580 F       1  UNL1       -0.1659
     22 F         141.1820  142.6168  166.8555 F       1  UNL1       -0.1659
     23 F         140.5710  141.3611  169.5107 F       1  UNL1       -0.1659
     24 O         143.2727  137.1946  157.1075 O.3     1  UNL1       -0.4363
     25 C         143.0911  135.7870  156.6220 C.ar    1  UNL1        0.2282
     26 N         143.3584  134.6350  157.5447 N.ar    1  UNL1       -0.1893
     27 C         143.1768  133.2275  157.0592 C.ar    1  UNL1        0.2012
     28 N         142.7278  132.9718  155.6510 N.ar    1  UNL1       -0.2271
     29 C         142.4604  134.1239  154.7283 C.ar    1  UNL1        0.0772
     30 C         142.6420  135.5314  155.2137 C.ar    1  UNL1        0.0477
     31 C         142.3746  136.6834  154.2911 C.3     1  UNL1        0.0494
     32 C         141.9256  136.4278  152.8829 C.3     1  UNL1        0.0738
     33 N         141.7440  135.0202  152.3974 N.3     1  UNL1       -0.2922
     34 C         142.0114  133.8682  153.3201 C.3     1  UNL1        0.1150
     35 H         142.3618  134.9037  151.5942 H       1  UNL1        0.1236
@<TRIPOS>BOND
     1     1     2    2
     2     2     3   am
     3     3    14    1
     4    14    15   ar
     5    15    16   ar
     6    16    17   ar
     7    17    18   ar
     8    18    20    1
     9    20    21    1
    10    20    22    1
    11    20    23    1
    12    18    19   ar
    13     2     4   am
    14     4     5   ar
    15     5     6   ar
    16     6     7   ar
    17     7     8   ar
    18     8     9   ar
    19     9    24    1
    20    24    25    1
    21    25    26   ar
    22    26    27   ar
    23    27    28   ar
    24    28    29   ar
    25    29    30   ar
    26    30    31    1
    27    31    32    1
    28    32    33    1
    29    33    34    1
    30     9    10   ar
    31    10    11   ar
    32    11    12   ar
    33    19    14   ar
    34    12     4   ar
    35    12     7   ar
    36    30    25   ar
    37    34    29    1
    38     3    13    1
    39    33    35    1
@<TRIPOS>MOLECULE
*****
 35 39 0 0 0
SMALL
GASTEIGER

@<TRIPOS>ATOM
      1 O         143.0477  141.4317  165.2196 O.2     1  UNL1       -0.2489
      2 C         142.2405  140.1978  165.4955 C.2     1  UNL1        0.3237
      3 N         141.6763  139.9615  166.8651 N.am    1  UNL1       -0.2657
      4 N         141.9976  139.2003  164.4020 N.ar    1  UNL1       -0.2609
      5 C         141.2142  137.9273  164.5278 C.ar    1  UNL1        0.0842
      6 C         141.2278  137.2409  163.1941 C.ar    1  UNL1        0.0207
      7 C         142.0196  138.0897  162.2441 C.ar    1  UNL1        0.0208
      8 C         142.3688  137.9163  160.7956 C.ar    1  UNL1        0.0390
      9 C         143.1938  138.9539  160.0936 C.ar    1  UNL1        0.1473
     10 C         143.6695  140.1649  160.8402 C.ar    1  UNL1        0.0390
     11 C         143.3203  140.3383  162.2886 C.ar    1  UNL1        0.0208
     12 C         142.4953  139.3006  162.9905 C.ar    1  UNL1        0.0683
     13 H         141.1466  139.1517  167.0463 H       1  UNL1        0.1566
     14 C         141.9193  140.9589  167.9588 C.ar    1  UNL1        0.0517
     15 C         143.3205  141.3715  168.2999 C.ar    1  UNL1        0.0147
     16 C         143.5635  142.3690  169.3935 C.ar    1  UNL1        0.0012
     17 C         142.4053  142.9539  170.1460 C.ar    1  UNL1        0.0039
     18 C         141.0040  142.5414  169.8050 C.ar    1  UNL1        0.0727
     19 C         140.7610  141.5439  168.7113 C.ar    1  UNL1        0.0186
     20 C         139.8458  143.1264  170.5575 C.3     1  UNL1        0.4186
     21 F         138.6875  143.7114  171.3100 F       1  UNL1       -0.1659
     22 F         139.2944  141.7491  170.7794 F       1  UNL1       -0.1659
     23 F         140.3972  144.5036  170.3355 F       1  UNL1       -0.1659
     24 O         143.5430  138.7806  158.6452 O.3     1  UNL1       -0.4363
     25 C         142.7341  137.8565  157.7841 C.ar    1  UNL1        0.2282
     26 N         143.2707  136.5020  157.4272 N.ar    1  UNL1       -0.1893
     27 C         142.4618  135.5779  156.5660 C.ar    1  UNL1        0.2012
     28 N         141.1163  136.0082  156.0617 N.ar    1  UNL1       -0.2271
     29 C         140.5796  137.3628  156.4186 C.ar    1  UNL1        0.0772
     30 C         141.3885  138.2869  157.2798 C.ar    1  UNL1        0.0477
     31 C         140.8519  139.6414  157.6367 C.3     1  UNL1        0.0494
     32 C         139.5064  140.0717  157.1324 C.3     1  UNL1        0.0738
     33 N         138.6975  139.1476  156.2712 N.3     1  UNL1       -0.2922
     34 C         139.2341  137.7931  155.9143 C.3     1  UNL1        0.1150
     35 H         138.5268  139.6374  155.3930 H       1  UNL1        0.1236
@<TRIPOS>BOND
     1     1     2    2
     2     2     3   am
     3     3    14    1
     4    14    15   ar
     5    15    16   ar
     6    16    17   ar
     7    17    18   ar
     8    18    20    1
     9    20    21    1
    10    20    22    1
    11    20    23    1
    12    18    19   ar
    13     2     4   am
    14     4     5   ar
    15     5     6   ar
    16     6     7   ar
    17     7     8   ar
    18     8     9   ar
    19     9    24    1
    20    24    25    1
    21    25    26   ar
    22    26    27   ar
    23    27    28   ar
    24    28    29   ar
    25    29    30   ar
    26    30    31    1
    27    31    32    1
    28    32    33    1
    29    33    34    1
    30     9    10   ar
    31    10    11   ar
    32    11    12   ar
    33    19    14   ar
    34    12     4   ar
    35    12     7   ar
    36    30    25   ar
    37    34    29    1
    38     3    13    1
    39    33    35    1
@<TRIPOS>MOLECULE
*****
 35 39 0 0 0
SMALL
GASTEIGER

@<TRIPOS>ATOM
      1 O         137.4797  139.7625  159.5030 O.2     1  UNL1       -0.2489
      2 C         138.1249  141.1056  159.3298 C.2     1  UNL1        0.3237
      3 N         138.1705  141.7465  157.9745 N.am    1  UNL1       -0.2657
      4 N         138.7246  141.8077  160.5120 N.ar    1  UNL1       -0.2609
      5 C         139.3996  143.1470  160.4929 C.ar    1  UNL1        0.0842
      6 C         139.8467  143.4607  161.8899 C.ar    1  UNL1        0.0207
      7 C         139.4479  142.3152  162.7724 C.ar    1  UNL1        0.0208
      8 C         139.6267  142.0705  164.2415 C.ar    1  UNL1        0.0390
      9 C         139.1120  140.8041  164.8590 C.ar    1  UNL1        0.1473
     10 C         138.4184  139.7824  164.0073 C.ar    1  UNL1        0.0390
     11 C         138.2397  140.0272  162.5383 C.ar    1  UNL1        0.0208
     12 C         138.7544  141.2936  161.9208 C.ar    1  UNL1        0.0683
     13 H         138.5939  142.6280  157.8608 H       1  UNL1        0.1566
     14 C         137.5709  141.0446  156.7923 C.ar    1  UNL1        0.0517
     15 C         138.3688  140.0164  156.0464 C.ar    1  UNL1        0.0147
     16 C         137.7693  139.3143  154.8642 C.ar    1  UNL1        0.0012
     17 C         136.3717  139.6404  154.4278 C.ar    1  UNL1        0.0039
     18 C         135.5737  140.6685  155.1735 C.ar    1  UNL1        0.0727
     19 C         136.1733  141.3706  156.3558 C.ar    1  UNL1        0.0186
     20 C         134.1762  140.9946  154.7371 C.3     1  UNL1        0.4186
     21 F         132.7786  141.3207  154.3005 F       1  UNL1       -0.1659
     22 F         133.7212  140.9571  156.1659 F       1  UNL1       -0.1659
     23 F         134.6312  141.0321  153.3082 F       1  UNL1       -0.1659
     24 O         139.2907  140.5594  166.3280 O.3     1  UNL1       -0.4363
     25 C         140.5851  140.0039  166.8437 C.ar    1  UNL1        0.2282
     26 N         141.5357  139.3219  165.9050 N.ar    1  UNL1       -0.1893
     27 C         142.8300  138.7664  166.4207 C.ar    1  UNL1        0.2012
     28 N         143.1739  138.8928  167.8752 N.ar    1  UNL1       -0.2271
     29 C         142.2233  139.5748  168.8141 C.ar    1  UNL1        0.0772
     30 C         140.9289  140.1303  168.2984 C.ar    1  UNL1        0.0477
     31 C         139.9784  140.8123  169.2372 C.3     1  UNL1        0.0494
     32 C         140.3223  140.9387  170.6917 C.3     1  UNL1        0.0738
     33 N         141.6166  140.3832  171.2075 N.3     1  UNL1       -0.2922
     34 C         142.5672  139.7013  170.2687 C.3     1  UNL1        0.1150
     35 H         141.3784  139.7040  171.9301 H       1  UNL1        0.1236
@<TRIPOS>BOND
     1     1     2    2
     2     2     3   am
     3     3    14    1
     4    14    15   ar
     5    15    16   ar
     6    16    17   ar
     7    17    18   ar
     8    18    20    1
     9    20    21    1
    10    20    22    1
    11    20    23    1
    12    18    19   ar
    13     2     4   am
    14     4     5   ar
    15     5     6   ar
    16     6     7   ar
    17     7     8   ar
    18     8     9   ar
    19     9    24    1
    20    24    25    1
    21    25    26   ar
    22    26    27   ar
    23    27    28   ar
    24    28    29   ar
    25    29    30   ar
    26    30    31    1
    27    31    32    1
    28    32    33    1
    29    33    34    1
    30     9    10   ar
    31    10    11   ar
    32    11    12   ar
    33    19    14   ar
    34    12     4   ar
    35    12     7   ar
    36    30    25   ar
    37    34    29    1
    38     3    13    1
    39    33    35    1
@<TRIPOS>MOLECULE
*****
 35 39 0 0 0
SMALL
GASTEIGER

@<TRIPOS>ATOM
      1 O         141.9228  141.2853  165.0620 O.2     1  UNL1       -0.2489
      2 C         140.4854  141.6070  165.3457 C.2     1  UNL1        0.3237
      3 N         139.9796  141.5989  166.7578 N.am    1  UNL1       -0.2657
      4 N         139.5538  141.9369  164.2173 N.ar    1  UNL1       -0.2609
      5 C         138.0986  142.2772  164.3461 C.ar    1  UNL1        0.0842
      6 C         137.5593  142.5351  162.9703 C.ar    1  UNL1        0.0207
      7 C         138.6812  142.3540  161.9913 C.ar    1  UNL1        0.0208
      8 C         138.7395  142.4781  160.4975 C.ar    1  UNL1        0.0390
      9 C         140.0306  142.2325  159.7744 C.ar    1  UNL1        0.1473
     10 C         141.2633  141.8628  160.5451 C.ar    1  UNL1        0.0390
     11 C         141.2049  141.7388  162.0388 C.ar    1  UNL1        0.0208
     12 C         139.9138  141.9844  162.7619 C.ar    1  UNL1        0.0683
     13 H         139.0363  141.8100  166.9440 H       1  UNL1        0.1566
     14 C         140.9112  141.2690  167.8862 C.ar    1  UNL1        0.0517
     15 C         141.0955  139.8432  168.3142 C.ar    1  UNL1        0.0147
     16 C         142.0270  139.5132  169.4427 C.ar    1  UNL1        0.0012
     17 C         142.7743  140.6091  170.1432 C.ar    1  UNL1        0.0039
     18 C         142.5900  142.0349  169.7152 C.ar    1  UNL1        0.0727
     19 C         141.6584  142.3648  168.5867 C.ar    1  UNL1        0.0186
     20 C         143.3373  143.1307  170.4157 C.3     1  UNL1        0.4186
     21 F         144.0847  144.2266  171.1162 F       1  UNL1       -0.1659
     22 F         142.0690  143.9235  170.5285 F       1  UNL1       -0.1659
     23 F         144.6057  142.3378  170.3028 F       1  UNL1       -0.1659
     24 O         140.0890  142.3565  158.2808 O.3     1  UNL1       -0.4363
     25 C         140.2986  143.6999  157.6473 C.ar    1  UNL1        0.2282
     26 N         141.5100  144.5128  157.9962 N.ar    1  UNL1       -0.1893
     27 C         141.7197  145.8562  157.3628 C.ar    1  UNL1        0.2012
     28 N         140.7180  146.3868  156.3805 N.ar    1  UNL1       -0.2271
     29 C         139.5065  145.5739  156.0315 C.ar    1  UNL1        0.0772
     30 C         139.2968  144.2305  156.6649 C.ar    1  UNL1        0.0477
     31 C         138.0855  143.4176  156.3160 C.3     1  UNL1        0.0494
     32 C         137.0838  143.9482  155.3337 C.3     1  UNL1        0.0738
     33 N         137.2934  145.2916  154.7003 N.3     1  UNL1       -0.2922
     34 C         138.5048  146.1045  155.0492 C.3     1  UNL1        0.1150
     35 H         136.4797  145.8592  154.9373 H       1  UNL1        0.1236
@<TRIPOS>BOND
     1     1     2    2
     2     2     3   am
     3     3    14    1
     4    14    15   ar
     5    15    16   ar
     6    16    17   ar
     7    17    18   ar
     8    18    20    1
     9    20    21    1
    10    20    22    1
    11    20    23    1
    12    18    19   ar
    13     2     4   am
    14     4     5   ar
    15     5     6   ar
    16     6     7   ar
    17     7     8   ar
    18     8     9   ar
    19     9    24    1
    20    24    25    1
    21    25    26   ar
    22    26    27   ar
    23    27    28   ar
    24    28    29   ar
    25    29    30   ar
    26    30    31    1
    27    31    32    1
    28    32    33    1
    29    33    34    1
    30     9    10   ar
    31    10    11   ar
    32    11    12   ar
    33    19    14   ar
    34    12     4   ar
    35    12     7   ar
    36    30    25   ar
    37    34    29    1
    38     3    13    1
    39    33    35    1
