@<TRIPOS>MOLECULE
*****
 26 29 0 0 0
SMALL
GASTEIGER

@<TRIPOS>ATOM
      1 O         144.1058  138.0861  166.9713 O.2     1  UNL1       -0.2698
      2 C         142.8950  138.7147  166.3480 C.2     1  UNL1        0.2519
      3 N         142.0786  139.7035  167.1263 N.am    1  UNL1       -0.2778
      4 C         142.5004  138.3547  164.9462 C.ar    1  UNL1        0.0880
      5 C         141.3110  137.4733  164.7048 C.ar    1  UNL1        0.0076
      6 C         140.9165  137.1132  163.3031 C.ar    1  UNL1        0.0003
      7 C         141.7115  137.6346  162.1429 C.ar    1  UNL1        0.0031
      8 C         142.9010  138.5160  162.3843 C.ar    1  UNL1        0.0376
      9 C         143.2954  138.8760  163.7860 C.ar    1  UNL1        0.1496
     10 O         144.4849  139.7574  164.0274 O.3     1  UNL1       -0.4533
     11 C         144.3525  141.2464  163.9037 C.ar    1  UNL1        0.1453
     12 C         144.4592  141.8996  162.5575 C.ar    1  UNL1        0.0375
     13 C         144.3268  143.3886  162.4337 C.ar    1  UNL1        0.0031
     14 C         144.0875  144.2245  163.6561 C.ar    1  UNL1        0.0002
     15 C         143.9808  143.5713  165.0022 C.ar    1  UNL1        0.0031
     16 C         144.1132  142.0823  165.1260 C.ar    1  UNL1        0.0375
     17 C         142.4730  140.0636  168.5280 C.3     1  UNL1        0.0926
     18 C         143.0224  141.3850  168.9774 C.3     1  UNL1        0.0383
     19 C         143.2763  141.3037  170.4535 C.3     1  UNL1        0.0704
     20 N         142.8838  139.9319  170.9164 N.3     1  UNL1       -0.2960
     21 C         142.3873  139.1655  169.7264 C.3     1  UNL1        0.0887
     22 H         142.1451  140.0009  171.6164 H       1  UNL1        0.1233
     23 C         140.8676  140.3322  166.5029 C.3     1  UNL1        0.0756
     24 C         140.6373  141.3985  165.4735 C.3     1  UNL1        0.0199
     25 C         139.1551  141.2212  165.6214 C.3     1  UNL1        0.0034
     26 C         139.3855  140.1549  166.6509 C.3     1  UNL1        0.0199
@<TRIPOS>BOND
     1     1     2    2
     2     2     4    1
     3     4     5   ar
     4     5     6   ar
     5     6     7   ar
     6     7     8   ar
     7     8     9   ar
     8     9    10    1
     9    10    11    1
    10    11    12   ar
    11    12    13   ar
    12    13    14   ar
    13    14    15   ar
    14    15    16   ar
    15     2     3   am
    16     3    23    1
    17    23    24    1
    18    24    25    1
    19    25    26    1
    20    17     3    1
    21    17    18    1
    22    18    19    1
    23    19    20    1
    24    20    21    1
    25     9     4   ar
    26    16    11   ar
    27    26    23    1
    28    21    17    1
    29    20    22    1
@<TRIPOS>MOLECULE
*****
 26 29 0 0 0
SMALL
GASTEIGER

@<TRIPOS>ATOM
      1 O         138.3145  139.1105  167.7338 O.2     1  UNL1       -0.2698
      2 C         139.4863  139.2933  166.8155 C.2     1  UNL1        0.2519
      3 N         140.7596  139.8928  167.3345 N.am    1  UNL1       -0.2778
      4 C         139.3850  138.8766  165.3781 C.ar    1  UNL1        0.0880
      5 C         140.1356  137.6725  164.8916 C.ar    1  UNL1        0.0076
      6 C         140.0342  137.2558  163.4542 C.ar    1  UNL1        0.0003
      7 C         139.1822  138.0432  162.5034 C.ar    1  UNL1        0.0031
      8 C         138.4315  139.2473  162.9899 C.ar    1  UNL1        0.0376
      9 C         138.5329  139.6639  164.4272 C.ar    1  UNL1        0.1496
     10 O         137.7823  140.8681  164.9138 O.3     1  UNL1       -0.4533
     11 C         138.2257  142.2425  164.5086 C.ar    1  UNL1        0.1453
     12 C         137.6475  142.8863  163.2833 C.ar    1  UNL1        0.0375
     13 C         138.0909  144.2608  162.8780 C.ar    1  UNL1        0.0031
     14 C         139.1125  144.9915  163.6981 C.ar    1  UNL1        0.0002
     15 C         139.6906  144.3477  164.9234 C.ar    1  UNL1        0.0031
     16 C         139.2472  142.9733  165.3286 C.ar    1  UNL1        0.0375
     17 C         140.8610  140.3096  168.7719 C.3     1  UNL1        0.0926
     18 C         140.2964  141.5650  169.3678 C.3     1  UNL1        0.0383
     19 C         140.6313  141.5754  170.8299 C.3     1  UNL1        0.0704
     20 N         141.4029  140.3264  171.1376 N.3     1  UNL1       -0.2960
     21 C         141.5449  139.5441  169.8657 C.3     1  UNL1        0.0887
     22 H         140.9013  139.7716  171.8311 H       1  UNL1        0.1233
     23 C         141.9315  140.0756  166.4161 C.3     1  UNL1        0.0756
     24 C         143.1607  139.2788  166.0936 C.3     1  UNL1        0.0199
     25 C         143.5887  140.3342  165.1173 C.3     1  UNL1        0.0034
     26 C         142.3595  141.1310  165.4399 C.3     1  UNL1        0.0199
@<TRIPOS>BOND
     1     1     2    2
     2     2     4    1
     3     4     5   ar
     4     5     6   ar
     5     6     7   ar
     6     7     8   ar
     7     8     9   ar
     8     9    10    1
     9    10    11    1
    10    11    12   ar
    11    12    13   ar
    12    13    14   ar
    13    14    15   ar
    14    15    16   ar
    15     2     3   am
    16     3    23    1
    17    23    24    1
    18    24    25    1
    19    25    26    1
    20    17     3    1
    21    17    18    1
    22    18    19    1
    23    19    20    1
    24    20    21    1
    25     9     4   ar
    26    16    11   ar
    27    26    23    1
    28    21    17    1
    29    20    22    1
@<TRIPOS>MOLECULE
*****
 26 29 0 0 0
SMALL
GASTEIGER

@<TRIPOS>ATOM
      1 O         143.6672  142.4145  166.5640 O.2     1  UNL1       -0.2698
      2 C         142.1770  142.5217  166.4312 C.2     1  UNL1        0.2519
      3 N         141.5762  143.1476  165.2076 N.am    1  UNL1       -0.2778
      4 C         141.2876  142.0029  167.5220 C.ar    1  UNL1        0.0880
      5 C         140.6957  142.9514  168.5219 C.ar    1  UNL1        0.0076
      6 C         139.8063  142.4326  169.6127 C.ar    1  UNL1        0.0003
      7 C         139.5087  140.9652  169.7034 C.ar    1  UNL1        0.0031
      8 C         140.1006  140.0167  168.7035 C.ar    1  UNL1        0.0376
      9 C         140.9900  140.5355  167.6128 C.ar    1  UNL1        0.1496
     10 O         141.5818  139.5869  166.6127 O.3     1  UNL1       -0.4533
     11 C         140.8392  139.2705  165.3485 C.ar    1  UNL1        0.1453
     12 C         141.4157  139.6654  164.0211 C.ar    1  UNL1        0.0375
     13 C         140.6731  139.3489  162.7569 C.ar    1  UNL1        0.0031
     14 C         139.3540  138.6375  162.8199 C.ar    1  UNL1        0.0002
     15 C         138.7776  138.2426  164.1472 C.ar    1  UNL1        0.0031
     16 C         139.5202  138.5591  165.4115 C.ar    1  UNL1        0.0375
     17 C         142.4655  143.6664  164.1168 C.3     1  UNL1        0.0926
     18 C         143.2069  142.8341  163.1131 C.3     1  UNL1        0.0383
     19 C         143.9693  143.7619  162.2141 C.3     1  UNL1        0.0704
     20 N         143.6990  145.1676  162.6624 N.3     1  UNL1       -0.2960
     21 C         142.7697  145.1086  163.8383 C.3     1  UNL1        0.0887
     22 H         143.2655  145.6953  161.9047 H       1  UNL1        0.1233
     23 C         140.0858  143.2547  165.0748 C.3     1  UNL1        0.0756
     24 C         138.9881  142.3207  164.6594 C.3     1  UNL1        0.0199
     25 C         137.9783  143.4063  164.8870 C.3     1  UNL1        0.0034
     26 C         139.0760  144.3403  165.3025 C.3     1  UNL1        0.0199
@<TRIPOS>BOND
     1     1     2    2
     2     2     4    1
     3     4     5   ar
     4     5     6   ar
     5     6     7   ar
     6     7     8   ar
     7     8     9   ar
     8     9    10    1
     9    10    11    1
    10    11    12   ar
    11    12    13   ar
    12    13    14   ar
    13    14    15   ar
    14    15    16   ar
    15     2     3   am
    16     3    23    1
    17    23    24    1
    18    24    25    1
    19    25    26    1
    20    17     3    1
    21    17    18    1
    22    18    19    1
    23    19    20    1
    24    20    21    1
    25     9     4   ar
    26    16    11   ar
    27    26    23    1
    28    21    17    1
    29    20    22    1
@<TRIPOS>MOLECULE
*****
 26 29 0 0 0
SMALL
GASTEIGER

@<TRIPOS>ATOM
      1 O         138.2230  138.4698  166.6830 O.2     1  UNL1       -0.2698
      2 C         138.8899  139.6394  166.0218 C.2     1  UNL1        0.2519
      3 N         139.8083  140.5241  166.8116 N.am    1  UNL1       -0.2778
      4 C         138.6383  139.9243  164.5707 C.ar    1  UNL1        0.0880
      5 C         137.6529  140.9834  164.1742 C.ar    1  UNL1        0.0076
      6 C         137.4015  141.2683  162.7231 C.ar    1  UNL1        0.0003
      7 C         138.1354  140.4941  161.6686 C.ar    1  UNL1        0.0031
      8 C         139.1208  139.4350  162.0652 C.ar    1  UNL1        0.0376
      9 C         139.3723  139.1501  163.5162 C.ar    1  UNL1        0.1496
     10 O         140.3577  138.0910  163.9128 O.3     1  UNL1       -0.4533
     11 C         141.7900  138.4568  164.1673 C.ar    1  UNL1        0.1453
     12 C         142.3815  138.2667  165.5326 C.ar    1  UNL1        0.0375
     13 C         143.8138  138.6325  165.7871 C.ar    1  UNL1        0.0031
     14 C         144.6546  139.1883  164.6762 C.ar    1  UNL1        0.0002
     15 C         144.0632  139.3783  163.3109 C.ar    1  UNL1        0.0031
     16 C         142.6309  139.0125  163.0564 C.ar    1  UNL1        0.0375
     17 C         140.0598  140.2392  168.2626 C.3     1  UNL1        0.0926
     18 C         141.3697  139.8268  168.8660 C.3     1  UNL1        0.0383
     19 C         141.1651  139.6495  170.3413 C.3     1  UNL1        0.0704
     20 N         139.7287  139.9523  170.6498 N.3     1  UNL1       -0.2960
     21 C         139.0456  140.3168  169.3651 C.3     1  UNL1        0.0887
     22 H         139.6723  140.7319  171.3052 H       1  UNL1        0.1233
     23 C         140.4751  141.6938  166.1503 C.3     1  UNL1        0.0756
     24 C         141.7626  141.9009  165.4090 C.3     1  UNL1        0.0199
     25 C         141.4182  143.3479  165.2151 C.3     1  UNL1        0.0034
     26 C         140.1307  143.1408  165.9564 C.3     1  UNL1        0.0199
@<TRIPOS>BOND
     1     1     2    2
     2     2     4    1
     3     4     5   ar
     4     5     6   ar
     5     6     7   ar
     6     7     8   ar
     7     8     9   ar
     8     9    10    1
     9    10    11    1
    10    11    12   ar
    11    12    13   ar
    12    13    14   ar
    13    14    15   ar
    14    15    16   ar
    15     2     3   am
    16     3    23    1
    17    23    24    1
    18    24    25    1
    19    25    26    1
    20    17     3    1
    21    17    18    1
    22    18    19    1
    23    19    20    1
    24    20    21    1
    25     9     4   ar
    26    16    11   ar
    27    26    23    1
    28    21    17    1
    29    20    22    1
@<TRIPOS>MOLECULE
*****
 26 29 0 0 0
SMALL
GASTEIGER

@<TRIPOS>ATOM
      1 O         143.1053  140.1997  168.2150 O.2     1  UNL1       -0.2698
      2 C         142.5340  140.8920  167.0132 C.2     1  UNL1        0.2519
      3 N         141.1205  141.3933  167.0379 N.am    1  UNL1       -0.2778
      4 C         143.3763  141.0831  165.7867 C.ar    1  UNL1        0.0880
      5 C         144.0180  142.4118  165.5172 C.ar    1  UNL1        0.0076
      6 C         144.8602  142.6029  164.2908 C.ar    1  UNL1        0.0003
      7 C         145.0607  141.4652  163.3339 C.ar    1  UNL1        0.0031
      8 C         144.4190  140.1365  163.6035 C.ar    1  UNL1        0.0376
      9 C         143.5768  139.9455  164.8299 C.ar    1  UNL1        0.1496
     10 O         142.9350  138.6167  165.0995 O.3     1  UNL1       -0.4533
     11 C         141.6037  138.2896  164.4907 C.ar    1  UNL1        0.1453
     12 C         140.3881  138.1758  165.3622 C.ar    1  UNL1        0.0375
     13 C         139.0568  137.8487  164.7535 C.ar    1  UNL1        0.0031
     14 C         138.9411  137.6352  163.2732 C.ar    1  UNL1        0.0002
     15 C         140.1566  137.7490  162.4018 C.ar    1  UNL1        0.0031
     16 C         141.4879  138.0761  163.0105 C.ar    1  UNL1        0.0375
     17 C         140.2782  141.2022  168.2642 C.3     1  UNL1        0.0926
     18 C         139.3740  140.0377  168.5401 C.3     1  UNL1        0.0383
     19 C         138.7292  140.2578  169.8765 C.3     1  UNL1        0.0704
     20 N         139.2350  141.5585  170.4265 N.3     1  UNL1       -0.2960
     21 C         140.1924  142.1421  169.4301 C.3     1  UNL1        0.0887
     22 H         139.7135  141.3969  171.3127 H       1  UNL1        0.1233
     23 C         140.5492  142.0856  165.8360 C.3     1  UNL1        0.0756
     24 C         140.2255  143.5077  165.4852 C.3     1  UNL1        0.0199
     25 C         139.7413  143.0647  164.1364 C.3     1  UNL1        0.0034
     26 C         140.0650  141.6427  164.4872 C.3     1  UNL1        0.0199
@<TRIPOS>BOND
     1     1     2    2
     2     2     4    1
     3     4     5   ar
     4     5     6   ar
     5     6     7   ar
     6     7     8   ar
     7     8     9   ar
     8     9    10    1
     9    10    11    1
    10    11    12   ar
    11    12    13   ar
    12    13    14   ar
    13    14    15   ar
    14    15    16   ar
    15     2     3   am
    16     3    23    1
    17    23    24    1
    18    24    25    1
    19    25    26    1
    20    17     3    1
    21    17    18    1
    22    18    19    1
    23    19    20    1
    24    20    21    1
    25     9     4   ar
    26    16    11   ar
    27    26    23    1
    28    21    17    1
    29    20    22    1
@<TRIPOS>MOLECULE
*****
 26 29 0 0 0
SMALL
GASTEIGER

@<TRIPOS>ATOM
      1 O         143.1617  142.1512  167.5813 O.2     1  UNL1       -0.2698
      2 C         142.0770  141.3321  166.9470 C.2     1  UNL1        0.2519
      3 N         140.7212  141.2601  167.5848 N.am    1  UNL1       -0.2778
      4 C         142.3480  140.5850  165.6747 C.ar    1  UNL1        0.0880
      5 C         142.6533  139.1171  165.7175 C.ar    1  UNL1        0.0076
      6 C         142.9243  138.3701  164.4453 C.ar    1  UNL1        0.0003
      7 C         142.8899  139.0910  163.1304 C.ar    1  UNL1        0.0031
      8 C         142.5845  140.5589  163.0876 C.ar    1  UNL1        0.0376
      9 C         142.3136  141.3059  164.3598 C.ar    1  UNL1        0.1496
     10 O         142.0082  142.7740  164.3171 O.3     1  UNL1       -0.4533
     11 C         140.5943  143.2409  164.1358 C.ar    1  UNL1        0.1453
     12 C         139.8830  142.9928  162.8386 C.ar    1  UNL1        0.0375
     13 C         138.4691  143.4598  162.6573 C.ar    1  UNL1        0.0031
     14 C         137.7665  144.1748  163.7731 C.ar    1  UNL1        0.0002
     15 C         138.4778  144.4229  165.0703 C.ar    1  UNL1        0.0031
     16 C         139.8917  143.9559  165.2516 C.ar    1  UNL1        0.0375
     17 C         140.4502  142.0072  168.8569 C.3     1  UNL1        0.0926
     18 C         140.3496  143.4969  169.0002 C.3     1  UNL1        0.0383
     19 C         140.0695  143.8061  170.4410 C.3     1  UNL1        0.0704
     20 N         139.9969  142.5075  171.1882 N.3     1  UNL1       -0.2960
     21 C         140.2323  141.3957  170.2092 C.3     1  UNL1        0.0887
     22 H         139.0760  142.4043  171.6144 H       1  UNL1        0.1233
     23 C         139.6365  140.4410  166.9503 C.3     1  UNL1        0.0756
     24 C         138.8291  139.2467  167.3648 C.3     1  UNL1        0.0199
     25 C         138.1024  139.2828  166.0531 C.3     1  UNL1        0.0034
     26 C         138.9098  140.4771  165.6386 C.3     1  UNL1        0.0199
@<TRIPOS>BOND
     1     1     2    2
     2     2     4    1
     3     4     5   ar
     4     5     6   ar
     5     6     7   ar
     6     7     8   ar
     7     8     9   ar
     8     9    10    1
     9    10    11    1
    10    11    12   ar
    11    12    13   ar
    12    13    14   ar
    13    14    15   ar
    14    15    16   ar
    15     2     3   am
    16     3    23    1
    17    23    24    1
    18    24    25    1
    19    25    26    1
    20    17     3    1
    21    17    18    1
    22    18    19    1
    23    19    20    1
    24    20    21    1
    25     9     4   ar
    26    16    11   ar
    27    26    23    1
    28    21    17    1
    29    20    22    1
@<TRIPOS>MOLECULE
*****
 26 29 0 0 0
SMALL
GASTEIGER

@<TRIPOS>ATOM
      1 O         140.8314  141.5843  160.9205 O.2     1  UNL1       -0.2698
      2 C         141.0598  141.6929  162.3990 C.2     1  UNL1        0.2519
      3 N         142.0666  140.8059  163.0695 N.am    1  UNL1       -0.2778
      4 C         140.2814  142.6885  163.2070 C.ar    1  UNL1        0.0880
      5 C         140.9265  143.9715  163.6400 C.ar    1  UNL1        0.0076
      6 C         140.1481  144.9670  164.4480 C.ar    1  UNL1        0.0003
      7 C         138.7245  144.6795  164.8230 C.ar    1  UNL1        0.0031
      8 C         138.0793  143.3965  164.3901 C.ar    1  UNL1        0.0376
      9 C         138.8577  142.4010  163.5821 C.ar    1  UNL1        0.1496
     10 O         138.2126  141.1178  163.1490 O.3     1  UNL1       -0.4533
     11 C         138.4015  139.8717  163.9623 C.ar    1  UNL1        0.1453
     12 C         138.0409  139.8644  165.4183 C.ar    1  UNL1        0.0375
     13 C         138.2298  138.6182  166.2315 C.ar    1  UNL1        0.0031
     14 C         138.7793  137.3793  165.5887 C.ar    1  UNL1        0.0002
     15 C         139.1398  137.3866  164.1327 C.ar    1  UNL1        0.0031
     16 C         138.9509  138.6328  163.3195 C.ar    1  UNL1        0.0375
     17 C         142.8450  139.8103  162.2615 C.3     1  UNL1        0.0926
     18 C         142.5745  138.3372  162.1793 C.3     1  UNL1        0.0383
     19 C         143.5929  137.7295  161.2609 C.3     1  UNL1        0.0704
     20 N         144.4929  138.8270  160.7755 N.3     1  UNL1       -0.2960
     21 C         144.0306  140.1130  161.3939 C.3     1  UNL1        0.0887
     22 H         144.4406  138.8933  159.7590 H       1  UNL1        0.1233
     23 C         142.2949  140.9145  164.5481 C.3     1  UNL1        0.0756
     24 C         141.6660  140.3053  165.7661 C.3     1  UNL1        0.0199
     25 C         142.6179  141.0681  166.6391 C.3     1  UNL1        0.0034
     26 C         143.2468  141.6773  165.4211 C.3     1  UNL1        0.0199
@<TRIPOS>BOND
     1     1     2    2
     2     2     4    1
     3     4     5   ar
     4     5     6   ar
     5     6     7   ar
     6     7     8   ar
     7     8     9   ar
     8     9    10    1
     9    10    11    1
    10    11    12   ar
    11    12    13   ar
    12    13    14   ar
    13    14    15   ar
    14    15    16   ar
    15     2     3   am
    16     3    23    1
    17    23    24    1
    18    24    25    1
    19    25    26    1
    20    17     3    1
    21    17    18    1
    22    18    19    1
    23    19    20    1
    24    20    21    1
    25     9     4   ar
    26    16    11   ar
    27    26    23    1
    28    21    17    1
    29    20    22    1
@<TRIPOS>MOLECULE
*****
 26 29 0 0 0
SMALL
GASTEIGER

@<TRIPOS>ATOM
      1 O         139.7111  142.6712  163.5979 O.2     1  UNL1       -0.2698
      2 C         140.5832  141.5133  163.9836 C.2     1  UNL1        0.2519
      3 N         142.0757  141.6631  163.9756 N.am    1  UNL1       -0.2778
      4 C         139.9628  140.2055  164.3772 C.ar    1  UNL1        0.0880
      5 C         139.8427  139.0994  163.3712 C.ar    1  UNL1        0.0076
      6 C         139.2224  137.7917  163.7648 C.ar    1  UNL1        0.0003
      7 C         138.7220  137.5901  165.1644 C.ar    1  UNL1        0.0031
      8 C         138.8420  138.6962  166.1704 C.ar    1  UNL1        0.0376
      9 C         139.4624  140.0039  165.7768 C.ar    1  UNL1        0.1496
     10 O         139.5824  141.1101  166.7828 O.3     1  UNL1       -0.4533
     11 C         140.7590  141.1543  167.7122 C.ar    1  UNL1        0.1453
     12 C         140.9594  140.0623  168.7209 C.ar    1  UNL1        0.0375
     13 C         142.1360  140.1065  169.6502 C.ar    1  UNL1        0.0031
     14 C         143.1122  141.2426  169.5708 C.ar    1  UNL1        0.0002
     15 C         142.9118  142.3345  168.5621 C.ar    1  UNL1        0.0031
     16 C         141.7352  142.2903  167.6328 C.ar    1  UNL1        0.0375
     17 C         142.6961  142.9708  163.5821 C.3     1  UNL1        0.0926
     18 C         143.2926  143.9806  164.5172 C.3     1  UNL1        0.0383
     19 C         143.7941  145.1322  163.6974 C.3     1  UNL1        0.0704
     20 N         143.5076  144.8342  162.2554 N.3     1  UNL1       -0.2960
     21 C         142.8289  143.4984  162.1842 C.3     1  UNL1        0.0887
     22 H         144.3799  144.8079  161.7274 H       1  UNL1        0.1233
     23 C         142.9477  140.5051  164.3613 C.3     1  UNL1        0.0756
     24 C         143.8549  139.5677  163.6209 C.3     1  UNL1        0.0199
     25 C         144.1809  138.8676  164.9068 C.3     1  UNL1        0.0034
     26 C         143.2737  139.8050  165.6472 C.3     1  UNL1        0.0199
@<TRIPOS>BOND
     1     1     2    2
     2     2     4    1
     3     4     5   ar
     4     5     6   ar
     5     6     7   ar
     6     7     8   ar
     7     8     9   ar
     8     9    10    1
     9    10    11    1
    10    11    12   ar
    11    12    13   ar
    12    13    14   ar
    13    14    15   ar
    14    15    16   ar
    15     2     3   am
    16     3    23    1
    17    23    24    1
    18    24    25    1
    19    25    26    1
    20    17     3    1
    21    17    18    1
    22    18    19    1
    23    19    20    1
    24    20    21    1
    25     9     4   ar
    26    16    11   ar
    27    26    23    1
    28    21    17    1
    29    20    22    1
@<TRIPOS>MOLECULE
*****
 26 29 0 0 0
SMALL
GASTEIGER

@<TRIPOS>ATOM
      1 O         140.3324  143.0897  167.6733 O.2     1  UNL1       -0.2698
      2 C         139.9273  142.0108  166.7132 C.2     1  UNL1        0.2519
      3 N         139.8449  140.5866  167.1769 N.am    1  UNL1       -0.2778
      4 C         139.6047  142.3559  165.2895 C.ar    1  UNL1        0.0880
      5 C         138.2315  142.0922  164.7466 C.ar    1  UNL1        0.0076
      6 C         137.9090  142.4373  163.3229 C.ar    1  UNL1        0.0003
      7 C         138.9595  143.0462  162.4423 C.ar    1  UNL1        0.0031
      8 C         140.3327  143.3100  162.9853 C.ar    1  UNL1        0.0376
      9 C         140.6552  142.9648  164.4089 C.ar    1  UNL1        0.1496
     10 O         142.0284  143.2286  164.9520 O.3     1  UNL1       -0.4533
     11 C         143.1473  142.2736  164.6582 C.ar    1  UNL1        0.1453
     12 C         143.0057  140.8220  165.0086 C.ar    1  UNL1        0.0375
     13 C         144.1246  139.8670  164.7149 C.ar    1  UNL1        0.0031
     14 C         145.3849  140.3637  164.0708 C.ar    1  UNL1        0.0002
     15 C         145.5264  141.8153  163.7204 C.ar    1  UNL1        0.0031
     16 C         144.4076  142.7703  164.0142 C.ar    1  UNL1        0.0375
     17 C         140.1675  140.2414  168.6005 C.3     1  UNL1        0.0926
     18 C         141.5142  139.8436  169.1278 C.3     1  UNL1        0.0383
     19 C         141.3791  139.5897  170.5999 C.3     1  UNL1        0.0704
     20 N         139.9488  139.8307  170.9825 N.3     1  UNL1       -0.2960
     21 C         139.2000  140.2334  169.7468 C.3     1  UNL1        0.0887
     22 H         139.8971  140.5760  171.6769 H       1  UNL1        0.1233
     23 C         139.4398  139.5076  166.2168 C.3     1  UNL1        0.0756
     24 C         138.2092  138.6738  166.0158 C.3     1  UNL1        0.0199
     25 C         138.8670  137.9817  164.8590 C.3     1  UNL1        0.0034
     26 C         140.0976  138.8155  165.0599 C.3     1  UNL1        0.0199
@<TRIPOS>BOND
     1     1     2    2
     2     2     4    1
     3     4     5   ar
     4     5     6   ar
     5     6     7   ar
     6     7     8   ar
     7     8     9   ar
     8     9    10    1
     9    10    11    1
    10    11    12   ar
    11    12    13   ar
    12    13    14   ar
    13    14    15   ar
    14    15    16   ar
    15     2     3   am
    16     3    23    1
    17    23    24    1
    18    24    25    1
    19    25    26    1
    20    17     3    1
    21    17    18    1
    22    18    19    1
    23    19    20    1
    24    20    21    1
    25     9     4   ar
    26    16    11   ar
    27    26    23    1
    28    21    17    1
    29    20    22    1
