@<TRIPOS>MOLECULE
*****
 27 30 0 0 0
SMALL
GASTEIGER

@<TRIPOS>ATOM
      1 C         138.4856  138.9072  165.5366 C.3     1  UNL1        0.1331
      2 C         138.2843  140.0109  164.5410 C.3     1  UNL1        0.0424
      3 C         138.5574  139.4575  163.1739 C.3     1  UNL1        0.0752
      4 C         138.9275  138.0117  163.3245 C.3     1  UNL1        0.0851
      5 N         138.8831  137.6716  164.7847 N.3     1  UNL1       -0.2902
      6 H         139.8028  137.3583  165.0952 H       1  UNL1        0.1237
      7 O         137.2784  138.1977  167.7251 O.2     1  UNL1       -0.2734
      8 C         138.3187  139.0193  167.0231 C.2     1  UNL1        0.2401
      9 N         139.1920  139.9530  167.8075 N.am    1  UNL1       -0.2727
     10 C         139.1416  140.1705  169.2908 C.3     1  UNL1        0.1316
     11 C         140.1875  141.1851  169.6464 C.3     1  UNL1        0.2146
     12 F         140.4844  141.6997  171.0237 F       1  UNL1       -0.2324
     13 C         140.8845  141.5948  168.3830 C.3     1  UNL1        0.2146
     14 F         142.0007  142.5909  168.2749 F       1  UNL1       -0.2324
     15 C         140.2692  140.8332  167.2464 C.3     1  UNL1        0.1316
     16 N         138.4748  140.2167  161.8827 N.3     1  UNL1       -0.2697
     17 C         138.5903  141.7122  161.8833 C.3     1  UNL1        0.0939
     18 C         138.5078  142.4712  160.5922 C.3     1  UNL1        0.1109
     19 N         138.3098  141.7347  159.3005 N.pl3   1  UNL1       -0.2753
     20 C         138.1942  140.2392  159.3000 C.3     1  UNL1        0.1109
     21 C         138.2768  139.4802  160.5911 C.3     1  UNL1        0.0939
     22 C         138.2272  142.4938  158.0094 C.ar    1  UNL1        0.2203
     23 N         137.1014  142.2289  157.0542 N.ar    1  UNL1       -0.2121
     24 C         137.0189  142.9880  155.7630 C.ar    1  UNL1        0.1034
     25 C         138.0622  144.0121  155.4271 C.ar    1  UNL1        0.0414
     26 C         139.1881  144.2770  156.3823 C.ar    1  UNL1        0.1034
     27 N         139.2705  143.5179  157.6734 N.ar    1  UNL1       -0.2121
@<TRIPOS>BOND
     1     7     8    2
     2     1     8    1
     3     1     2    1
     4     2     3    1
     5     3    16    1
     6    16    17    1
     7    17    18    1
     8    18    19    1
     9    19    22    1
    10    22    23   ar
    11    23    24   ar
    12    24    25   ar
    13    25    26   ar
    14    26    27   ar
    15    19    20    1
    16    20    21    1
    17     3     4    1
    18     4     5    1
    19     8     9   am
    20     9    10    1
    21    10    11    1
    22    11    12    1
    23    11    13    1
    24    13    14    1
    25    13    15    1
    26     5     1    1
    27    15     9    1
    28    21    16    1
    29    27    22   ar
    30     5     6    1
@<TRIPOS>MOLECULE
*****
 27 30 0 0 0
SMALL
GASTEIGER

@<TRIPOS>ATOM
      1 C         138.5436  139.4272  164.7931 C.3     1  UNL1        0.1331
      2 C         139.6033  138.8037  163.9338 C.3     1  UNL1        0.0424
      3 C         139.3627  139.2328  162.5168 C.3     1  UNL1        0.0752
      4 C         138.1544  140.1214  162.5003 C.3     1  UNL1        0.0851
      5 N         137.6481  140.2416  163.9071 N.3     1  UNL1       -0.2902
      6 H         136.6927  139.8888  163.9625 H       1  UNL1        0.1237
      7 O         137.3899  138.3107  166.8358 O.2     1  UNL1       -0.2734
      8 C         138.4040  139.2648  166.2777 C.2     1  UNL1        0.2401
      9 N         139.2784  140.0565  167.2044 N.am    1  UNL1       -0.2727
     10 C         139.2534  140.0004  168.7031 C.3     1  UNL1        0.1316
     11 C         140.2908  140.9524  169.2199 C.3     1  UNL1        0.2146
     12 F         140.6067  141.2140  170.6627 F       1  UNL1       -0.2324
     13 C         140.9570  141.5971  168.0407 C.3     1  UNL1        0.2146
     14 F         142.0560  142.6164  168.0971 F       1  UNL1       -0.2324
     15 C         140.3312  141.0433  166.7949 C.3     1  UNL1        0.1316
     16 N         140.1860  138.8418  161.3253 N.3     1  UNL1       -0.2697
     17 C         141.6065  138.3964  161.5087 C.3     1  UNL1        0.0939
     18 C         142.4297  138.0055  160.3173 C.3     1  UNL1        0.1109
     19 N         141.8324  138.0600  158.9425 N.pl3   1  UNL1       -0.2753
     20 C         140.4118  138.5054  158.7590 C.3     1  UNL1        0.1109
     21 C         139.5887  138.8964  159.9504 C.3     1  UNL1        0.0939
     22 C         142.6556  137.6691  157.7510 C.ar    1  UNL1        0.2203
     23 N         142.8232  136.2210  157.3977 N.ar    1  UNL1       -0.2121
     24 C         143.6465  135.8300  156.2063 C.ar    1  UNL1        0.1034
     25 C         144.3021  136.8873  155.3681 C.ar    1  UNL1        0.0414
     26 C         144.1344  138.3354  155.7215 C.ar    1  UNL1        0.1034
     27 N         143.3112  138.7263  156.9129 N.ar    1  UNL1       -0.2121
@<TRIPOS>BOND
     1     7     8    2
     2     1     8    1
     3     1     2    1
     4     2     3    1
     5     3    16    1
     6    16    17    1
     7    17    18    1
     8    18    19    1
     9    19    22    1
    10    22    23   ar
    11    23    24   ar
    12    24    25   ar
    13    25    26   ar
    14    26    27   ar
    15    19    20    1
    16    20    21    1
    17     3     4    1
    18     4     5    1
    19     8     9   am
    20     9    10    1
    21    10    11    1
    22    11    12    1
    23    11    13    1
    24    13    14    1
    25    13    15    1
    26     5     1    1
    27    15     9    1
    28    21    16    1
    29    27    22   ar
    30     5     6    1
@<TRIPOS>MOLECULE
*****
 27 30 0 0 0
SMALL
GASTEIGER

@<TRIPOS>ATOM
      1 C         142.6252  143.3778  160.5793 C.3     1  UNL1        0.1331
      2 C         142.6422  141.8877  160.4075 C.3     1  UNL1        0.0424
      3 C         142.7702  141.5914  158.9427 C.3     1  UNL1        0.0752
      4 C         142.8324  142.8984  158.2091 C.3     1  UNL1        0.0851
      5 N         142.7428  144.0024  159.2206 N.3     1  UNL1       -0.2902
      6 H         141.9224  144.5786  159.0323 H       1  UNL1        0.1237
      7 O         143.7276  144.7341  162.5016 O.2     1  UNL1       -0.2734
      8 C         142.5108  144.1140  161.8812 C.2     1  UNL1        0.2401
      9 N         141.1797  144.2300  162.5627 N.am    1  UNL1       -0.2727
     10 C         140.9121  144.9317  163.8612 C.3     1  UNL1        0.1316
     11 C         139.4494  144.8000  164.1664 C.3     1  UNL1        0.2146
     12 F         138.7466  145.3542  165.3701 F       1  UNL1       -0.2324
     13 C         138.8129  144.0169  163.0566 C.3     1  UNL1        0.2146
     14 F         137.3619  143.6505  162.9556 F       1  UNL1       -0.2324
     15 C         139.8823  143.6646  162.0655 C.3     1  UNL1        0.1316
     16 N         142.8263  140.2276  158.3206 N.3     1  UNL1       -0.2697
     17 C         142.5235  139.0132  159.1472 C.3     1  UNL1        0.0939
     18 C         142.5796  137.6495  158.5251 C.3     1  UNL1        0.1109
     19 N         142.9384  137.5002  157.0763 N.pl3   1  UNL1       -0.2753
     20 C         143.2411  138.7146  156.2496 C.3     1  UNL1        0.1109
     21 C         143.1851  140.0784  156.8718 C.3     1  UNL1        0.0939
     22 C         142.9944  136.1364  156.4542 C.ar    1  UNL1        0.2203
     23 N         142.6633  135.9604  155.0019 N.ar    1  UNL1       -0.2121
     24 C         142.7193  134.5965  154.3797 C.ar    1  UNL1        0.1034
     25 C         143.1065  133.4088  155.2100 C.ar    1  UNL1        0.0414
     26 C         143.4377  133.5849  156.6624 C.ar    1  UNL1        0.1034
     27 N         143.3816  134.9487  157.2845 N.ar    1  UNL1       -0.2121
@<TRIPOS>BOND
     1     7     8    2
     2     1     8    1
     3     1     2    1
     4     2     3    1
     5     3    16    1
     6    16    17    1
     7    17    18    1
     8    18    19    1
     9    19    22    1
    10    22    23   ar
    11    23    24   ar
    12    24    25   ar
    13    25    26   ar
    14    26    27   ar
    15    19    20    1
    16    20    21    1
    17     3     4    1
    18     4     5    1
    19     8     9   am
    20     9    10    1
    21    10    11    1
    22    11    12    1
    23    11    13    1
    24    13    14    1
    25    13    15    1
    26     5     1    1
    27    15     9    1
    28    21    16    1
    29    27    22   ar
    30     5     6    1
@<TRIPOS>MOLECULE
*****
 27 30 0 0 0
SMALL
GASTEIGER

@<TRIPOS>ATOM
      1 C         143.6585  142.4566  159.1999 C.3     1  UNL1        0.1331
      2 C         143.2308  141.0353  158.9828 C.3     1  UNL1        0.0424
      3 C         143.8157  140.5687  157.6827 C.3     1  UNL1        0.0752
      4 C         144.6049  141.7016  157.0963 C.3     1  UNL1        0.0851
      5 N         144.5078  142.8684  158.0340 N.3     1  UNL1       -0.2902
      6 H         144.0792  143.6614  157.5565 H       1  UNL1        0.1237
      7 O         142.3032  144.4252  160.2187 O.2     1  UNL1       -0.2734
      8 C         143.2999  143.3153  160.3763 C.2     1  UNL1        0.2401
      9 N         143.9380  143.0642  161.7104 N.am    1  UNL1       -0.2727
     10 C         143.6801  143.8361  162.9704 C.3     1  UNL1        0.1316
     11 C         144.5287  143.2461  164.0574 C.3     1  UNL1        0.2146
     12 F         144.5850  143.7110  165.4824 F       1  UNL1       -0.2324
     13 C         145.3112  142.1095  163.4693 C.3     1  UNL1        0.2146
     14 F         146.2874  141.2383  164.2028 F       1  UNL1       -0.2324
     15 C         144.9461  141.9972  162.0186 C.3     1  UNL1        0.1316
     16 N         143.6420  139.2081  157.0756 N.3     1  UNL1       -0.2697
     17 C         142.8983  138.1421  157.8243 C.3     1  UNL1        0.0939
     18 C         142.7246  136.7815  157.2172 C.3     1  UNL1        0.1109
     19 N         143.2945  136.4870  155.8613 N.pl3   1  UNL1       -0.2753
     20 C         144.0382  137.5529  155.1126 C.3     1  UNL1        0.1109
     21 C         144.2119  138.9135  155.7197 C.3     1  UNL1        0.0939
     22 C         143.1208  135.1263  155.2542 C.ar    1  UNL1        0.2203
     23 N         143.7074  133.9228  155.9305 N.ar    1  UNL1       -0.2121
     24 C         143.5336  132.5622  155.3233 C.ar    1  UNL1        0.1034
     25 C         142.7732  132.4051  154.0399 C.ar    1  UNL1        0.0414
     26 C         142.1866  133.6087  153.3637 C.ar    1  UNL1        0.1034
     27 N         142.3604  134.9693  153.9708 N.ar    1  UNL1       -0.2121
@<TRIPOS>BOND
     1     7     8    2
     2     1     8    1
     3     1     2    1
     4     2     3    1
     5     3    16    1
     6    16    17    1
     7    17    18    1
     8    18    19    1
     9    19    22    1
    10    22    23   ar
    11    23    24   ar
    12    24    25   ar
    13    25    26   ar
    14    26    27   ar
    15    19    20    1
    16    20    21    1
    17     3     4    1
    18     4     5    1
    19     8     9   am
    20     9    10    1
    21    10    11    1
    22    11    12    1
    23    11    13    1
    24    13    14    1
    25    13    15    1
    26     5     1    1
    27    15     9    1
    28    21    16    1
    29    27    22   ar
    30     5     6    1
@<TRIPOS>MOLECULE
*****
 27 30 0 0 0
SMALL
GASTEIGER

@<TRIPOS>ATOM
      1 C         140.8459  145.1683  160.0743 C.3     1  UNL1        0.1331
      2 C         141.5084  144.2891  161.0932 C.3     1  UNL1        0.0424
      3 C         140.8697  144.5585  162.4233 C.3     1  UNL1        0.0752
      4 C         139.8124  145.6042  162.2266 C.3     1  UNL1        0.0851
      5 N         139.7977  145.9811  160.7748 N.3     1  UNL1       -0.2902
      6 H         140.0047  146.9747  160.6730 H       1  UNL1        0.1237
      7 O         142.2635  146.1321  158.1220 O.2     1  UNL1       -0.2734
      8 C         141.1740  145.2248  158.6117 C.2     1  UNL1        0.2401
      9 N         140.4127  144.3741  157.6388 N.am    1  UNL1       -0.2727
     10 C         140.6272  144.3242  156.1551 C.3     1  UNL1        0.1316
     11 C         139.6503  143.3431  155.5782 C.3     1  UNL1        0.2146
     12 F         139.5154  142.9819  154.1286 F       1  UNL1       -0.2324
     13 C         138.8318  142.7866  156.7053 C.3     1  UNL1        0.2146
     14 F         137.7347  141.7712  156.5808 F       1  UNL1       -0.2324
     15 C         139.3030  143.4238  157.9789 C.3     1  UNL1        0.1316
     16 N         141.2257  143.8981  163.7223 N.3     1  UNL1       -0.2697
     17 C         140.1626  143.6401  164.7486 C.3     1  UNL1        0.0939
     18 C         140.5187  142.9798  166.0475 C.3     1  UNL1        0.1109
     19 N         141.9377  142.5773  166.3201 N.pl3   1  UNL1       -0.2753
     20 C         143.0008  142.8353  165.2937 C.3     1  UNL1        0.1109
     21 C         142.6447  143.4956  163.9949 C.3     1  UNL1        0.0939
     22 C         142.2937  141.9170  167.6190 C.ar    1  UNL1        0.2203
     23 N         143.2880  142.5602  168.5397 N.ar    1  UNL1       -0.2121
     24 C         143.6440  141.8998  169.8386 C.ar    1  UNL1        0.1034
     25 C         143.0057  140.5962  170.2169 C.ar    1  UNL1        0.0414
     26 C         142.0114  139.9529  169.2961 C.ar    1  UNL1        0.1034
     27 N         141.6555  140.6133  167.9972 N.ar    1  UNL1       -0.2121
@<TRIPOS>BOND
     1     7     8    2
     2     1     8    1
     3     1     2    1
     4     2     3    1
     5     3    16    1
     6    16    17    1
     7    17    18    1
     8    18    19    1
     9    19    22    1
    10    22    23   ar
    11    23    24   ar
    12    24    25   ar
    13    25    26   ar
    14    26    27   ar
    15    19    20    1
    16    20    21    1
    17     3     4    1
    18     4     5    1
    19     8     9   am
    20     9    10    1
    21    10    11    1
    22    11    12    1
    23    11    13    1
    24    13    14    1
    25    13    15    1
    26     5     1    1
    27    15     9    1
    28    21    16    1
    29    27    22   ar
    30     5     6    1
@<TRIPOS>MOLECULE
*****
 27 30 0 0 0
SMALL
GASTEIGER

@<TRIPOS>ATOM
      1 C         142.9185  141.9840  165.8576 C.3     1  UNL1        0.1331
      2 C         142.2538  142.8319  164.8139 C.3     1  UNL1        0.0424
      3 C         142.8885  142.5209  163.4909 C.3     1  UNL1        0.0752
      4 C         143.9455  141.4808  163.7169 C.3     1  UNL1        0.0851
      5 N         143.9640  141.1489  165.1796 N.3     1  UNL1       -0.2902
      6 H         144.8823  141.3593  165.5707 H       1  UNL1        0.1237
      7 O         143.4882  142.6858  168.2934 O.2     1  UNL1       -0.2734
      8 C         142.5945  141.9730  167.3222 C.2     1  UNL1        0.2401
      9 N         141.3768  141.2493  167.8155 N.am    1  UNL1       -0.2727
     10 C         140.9272  141.1517  169.2432 C.3     1  UNL1        0.1316
     11 C         139.6675  140.3382  169.2779 C.3     1  UNL1        0.2146
     12 F         138.8757  139.9908  170.5036 F       1  UNL1       -0.2324
     13 C         139.3385  139.9329  167.8716 C.3     1  UNL1        0.2146
     14 F         138.1600  139.1092  167.4441 F       1  UNL1       -0.2324
     15 C         140.3950  140.4961  166.9678 C.3     1  UNL1        0.1316
     16 N         142.5294  143.1411  162.1731 N.3     1  UNL1       -0.2697
     17 C         141.6364  144.3456  162.1296 C.3     1  UNL1        0.0939
     18 C         141.2774  144.9657  160.8119 C.3     1  UNL1        0.1109
     19 N         141.8112  144.3814  159.5377 N.pl3   1  UNL1       -0.2753
     20 C         142.7042  143.1770  159.5812 C.3     1  UNL1        0.1109
     21 C         143.0633  142.5568  160.8989 C.3     1  UNL1        0.0939
     22 C         141.4521  145.0017  158.2199 C.ar    1  UNL1        0.2203
     23 N         142.3249  144.7745  157.0214 N.ar    1  UNL1       -0.2121
     24 C         141.9658  145.3948  155.7036 C.ar    1  UNL1        0.1034
     25 C         140.7338  146.2421  155.5845 C.ar    1  UNL1        0.0414
     26 C         139.8609  146.4692  156.7831 C.ar    1  UNL1        0.1034
     27 N         140.2201  145.8490  158.1008 N.ar    1  UNL1       -0.2121
@<TRIPOS>BOND
     1     7     8    2
     2     1     8    1
     3     1     2    1
     4     2     3    1
     5     3    16    1
     6    16    17    1
     7    17    18    1
     8    18    19    1
     9    19    22    1
    10    22    23   ar
    11    23    24   ar
    12    24    25   ar
    13    25    26   ar
    14    26    27   ar
    15    19    20    1
    16    20    21    1
    17     3     4    1
    18     4     5    1
    19     8     9   am
    20     9    10    1
    21    10    11    1
    22    11    12    1
    23    11    13    1
    24    13    14    1
    25    13    15    1
    26     5     1    1
    27    15     9    1
    28    21    16    1
    29    27    22   ar
    30     5     6    1
@<TRIPOS>MOLECULE
*****
 27 30 0 0 0
SMALL
GASTEIGER

@<TRIPOS>ATOM
      1 C         143.5522  141.4267  163.6672 C.3     1  UNL1        0.1331
      2 C         142.6194  141.8209  162.5606 C.3     1  UNL1        0.0424
      3 C         143.2324  142.9770  161.8274 C.3     1  UNL1        0.0752
      4 C         144.5440  143.2974  162.4809 C.3     1  UNL1        0.0851
      5 N         144.7416  142.3393  163.6180 N.3     1  UNL1       -0.2902
      6 H         144.8194  142.8543  164.4950 H       1  UNL1        0.1237
      7 O         143.3931  138.8876  164.1940 O.2     1  UNL1       -0.2734
      8 C         143.3338  140.3152  164.6505 C.2     1  UNL1        0.2401
      9 N         143.0562  140.6312  166.0903 N.am    1  UNL1       -0.2727
     10 C         142.8187  139.6310  167.1826 C.3     1  UNL1        0.1316
     11 C         142.5831  140.3846  168.4579 C.3     1  UNL1        0.2146
     12 F         142.3045  139.7786  169.8015 F       1  UNL1       -0.2324
     13 C         142.6749  141.8506  168.1539 C.3     1  UNL1        0.2146
     14 F         142.5043  142.9680  169.1399 F       1  UNL1       -0.2324
     15 C         142.9673  142.0030  166.6905 C.3     1  UNL1        0.1316
     16 N         142.6381  143.6879  160.6478 N.3     1  UNL1       -0.2697
     17 C         143.1322  143.3872  159.2638 C.3     1  UNL1        0.0939
     18 C         142.5379  144.0981  158.0843 C.3     1  UNL1        0.1109
     19 N         141.4495  145.1098  158.2887 N.pl3   1  UNL1       -0.2753
     20 C         140.9554  145.4106  159.6726 C.3     1  UNL1        0.1109
     21 C         141.5497  144.6997  160.8522 C.3     1  UNL1        0.0939
     22 C         140.8552  145.8208  157.1091 C.ar    1  UNL1        0.2203
     23 N         141.4546  145.6422  155.7457 N.ar    1  UNL1       -0.2121
     24 C         140.8603  146.3531  154.5661 C.ar    1  UNL1        0.1034
     25 C         139.6666  147.2427  154.7499 C.ar    1  UNL1        0.0414
     26 C         139.0672  147.4213  156.1134 C.ar    1  UNL1        0.1034
     27 N         139.6615  146.7103  157.2929 N.ar    1  UNL1       -0.2121
@<TRIPOS>BOND
     1     7     8    2
     2     1     8    1
     3     1     2    1
     4     2     3    1
     5     3    16    1
     6    16    17    1
     7    17    18    1
     8    18    19    1
     9    19    22    1
    10    22    23   ar
    11    23    24   ar
    12    24    25   ar
    13    25    26   ar
    14    26    27   ar
    15    19    20    1
    16    20    21    1
    17     3     4    1
    18     4     5    1
    19     8     9   am
    20     9    10    1
    21    10    11    1
    22    11    12    1
    23    11    13    1
    24    13    14    1
    25    13    15    1
    26     5     1    1
    27    15     9    1
    28    21    16    1
    29    27    22   ar
    30     5     6    1
@<TRIPOS>MOLECULE
*****
 27 30 0 0 0
SMALL
GASTEIGER

@<TRIPOS>ATOM
      1 C         139.7813  143.1651  159.6526 C.3     1  UNL1        0.1331
      2 C         140.6024  141.9218  159.4798 C.3     1  UNL1        0.0424
      3 C         139.9958  141.1163  158.3694 C.3     1  UNL1        0.0752
      4 C         138.7996  141.8617  157.8559 C.3     1  UNL1        0.0851
      5 N         138.6670  143.1280  158.6490 N.3     1  UNL1       -0.2902
      6 H         137.7675  143.1428  159.1298 H       1  UNL1        0.1237
      7 O         140.8957  145.4242  160.2888 O.2     1  UNL1       -0.2734
      8 C         140.0306  144.2543  160.6534 C.2     1  UNL1        0.2401
      9 N         139.4147  144.1737  162.0187 N.am    1  UNL1       -0.2727
     10 C         139.5732  145.1814  163.1184 C.3     1  UNL1        0.1316
     11 C         138.7887  144.7017  164.3034 C.3     1  UNL1        0.2146
     12 F         138.6687  145.4030  165.6239 F       1  UNL1       -0.2324
     13 C         138.1453  143.3974  163.9362 C.3     1  UNL1        0.2146
     14 F         137.2689  142.5655  164.8249 F       1  UNL1       -0.2324
     15 C         138.5322  143.0711  162.5241 C.3     1  UNL1        0.1316
     16 N         140.4972  139.7969  157.8615 N.3     1  UNL1       -0.2697
     17 C         139.5867  138.9009  157.0753 C.3     1  UNL1        0.0939
     18 C         140.0882  137.5815  156.5674 C.3     1  UNL1        0.1109
     19 N         141.5000  137.1583  156.8458 N.pl3   1  UNL1       -0.2753
     20 C         142.4105  138.0543  157.6320 C.3     1  UNL1        0.1109
     21 C         141.9090  139.3736  158.1398 C.3     1  UNL1        0.0939
     22 C         142.0014  135.8389  156.3379 C.ar    1  UNL1        0.2203
     23 N         141.1724  135.0419  155.3749 N.ar    1  UNL1       -0.2121
     24 C         141.6738  133.7225  154.8670 C.ar    1  UNL1        0.1034
     25 C         143.0042  133.2002  155.3222 C.ar    1  UNL1        0.0414
     26 C         143.8333  133.9973  156.2853 C.ar    1  UNL1        0.1034
     27 N         143.3318  135.3166  156.7931 N.ar    1  UNL1       -0.2121
@<TRIPOS>BOND
     1     7     8    2
     2     1     8    1
     3     1     2    1
     4     2     3    1
     5     3    16    1
     6    16    17    1
     7    17    18    1
     8    18    19    1
     9    19    22    1
    10    22    23   ar
    11    23    24   ar
    12    24    25   ar
    13    25    26   ar
    14    26    27   ar
    15    19    20    1
    16    20    21    1
    17     3     4    1
    18     4     5    1
    19     8     9   am
    20     9    10    1
    21    10    11    1
    22    11    12    1
    23    11    13    1
    24    13    14    1
    25    13    15    1
    26     5     1    1
    27    15     9    1
    28    21    16    1
    29    27    22   ar
    30     5     6    1
@<TRIPOS>MOLECULE
*****
 27 30 0 0 0
SMALL
GASTEIGER

@<TRIPOS>ATOM
      1 C         141.6187  138.5740  164.7564 C.3     1  UNL1        0.1331
      2 C         141.1872  139.5667  163.7180 C.3     1  UNL1        0.0424
      3 C         140.3369  138.8468  162.7136 C.3     1  UNL1        0.0752
      4 C         140.2429  137.4092  163.1313 C.3     1  UNL1        0.0851
      5 N         141.0351  137.2405  164.3938 N.3     1  UNL1       -0.2902
      6 H         141.7838  136.5639  164.2450 H       1  UNL1        0.1237
      7 O         143.9573  138.5989  165.8878 O.2     1  UNL1       -0.2734
      8 C         142.4822  138.8638  165.9482 C.2     1  UNL1        0.2401
      9 N         141.8705  139.4186  167.2004 N.am    1  UNL1       -0.2727
     10 C         142.6032  139.7563  168.4649 C.3     1  UNL1        0.1316
     11 C         141.6043  140.2794  169.4540 C.3     1  UNL1        0.2146
     12 F         141.9030  140.7367  170.8510 F       1  UNL1       -0.2324
     13 C         140.2540  140.2651  168.8008 C.3     1  UNL1        0.2146
     14 F         138.9655  140.7054  169.4299 F       1  UNL1       -0.2324
     15 C         140.4186  139.7330  167.4080 C.3     1  UNL1        0.1316
     16 N         139.6936  139.4573  161.5038 N.3     1  UNL1       -0.2697
     17 C         139.7831  138.7643  160.1765 C.3     1  UNL1        0.0939
     18 C         139.1398  139.3749  158.9669 C.3     1  UNL1        0.1109
     19 N         138.4069  140.6784  159.0845 N.pl3   1  UNL1       -0.2753
     20 C         138.3174  141.3713  160.4118 C.3     1  UNL1        0.1109
     21 C         138.9608  140.7608  161.6214 C.3     1  UNL1        0.0939
     22 C         137.7636  141.2889  157.8747 C.ar    1  UNL1        0.2203
     23 N         136.6841  140.5466  157.1442 N.ar    1  UNL1       -0.2121
     24 C         136.0408  141.1571  155.9344 C.ar    1  UNL1        0.1034
     25 C         136.4769  142.5099  155.4553 C.ar    1  UNL1        0.0414
     26 C         137.5565  143.2522  156.1859 C.ar    1  UNL1        0.1034
     27 N         138.1997  142.6417  157.3956 N.ar    1  UNL1       -0.2121
@<TRIPOS>BOND
     1     7     8    2
     2     1     8    1
     3     1     2    1
     4     2     3    1
     5     3    16    1
     6    16    17    1
     7    17    18    1
     8    18    19    1
     9    19    22    1
    10    22    23   ar
    11    23    24   ar
    12    24    25   ar
    13    25    26   ar
    14    26    27   ar
    15    19    20    1
    16    20    21    1
    17     3     4    1
    18     4     5    1
    19     8     9   am
    20     9    10    1
    21    10    11    1
    22    11    12    1
    23    11    13    1
    24    13    14    1
    25    13    15    1
    26     5     1    1
    27    15     9    1
    28    21    16    1
    29    27    22   ar
    30     5     6    1
