@<TRIPOS>MOLECULE
*****
 33 36 0 0 0
SMALL
GASTEIGER

@<TRIPOS>ATOM
      1 N         138.9231  143.0095  162.6330 N.3     1  UNL1       -0.2727
      2 C         139.7374  142.2310  161.6427 C.3     1  UNL1        0.0721
      3 C         139.3454  140.8272  161.2878 C.3     1  UNL1        0.0187
      4 C         138.1391  140.2020  161.9233 C.3     1  UNL1        0.0185
      5 C         137.3247  140.9806  162.9137 C.3     1  UNL1        0.0187
      6 C         137.7167  142.3843  163.2685 C.3     1  UNL1        0.0721
      7 C         139.3151  144.4133  162.9879 C.3     1  UNL1        0.0724
      8 C         140.1968  144.6685  164.1742 C.3     1  UNL1        0.0220
      9 C         141.4174  143.8255  164.3967 C.3     1  UNL1        0.0278
     10 C         141.5224  140.8688  167.7873 C.ar    1  UNL1        0.0553
     11 C         140.2222  141.1889  167.1113 C.ar    1  UNL1        0.0043
     12 C         140.1872  142.1745  165.9811 C.ar    1  UNL1       -0.0041
     13 C         141.4524  142.8400  165.5269 C.ar    1  UNL1       -0.0221
     14 C         142.7526  142.5199  166.2029 C.ar    1  UNL1       -0.0041
     15 C         142.7876  141.5343  167.3331 C.ar    1  UNL1        0.0043
     16 O         140.3032  139.5694  169.6781 O.2     1  UNL1       -0.2681
     17 C         141.5573  139.8832  168.9175 C.2     1  UNL1        0.2677
     18 N         142.8465  139.2114  169.2872 N.am    1  UNL1       -0.1934
     19 O         142.8815  138.2258  170.4174 O.3     1  UNL1       -0.2949
     20 H         143.6697  139.4173  168.7879 H       1  UNL1        0.1825
     21 H         141.9937  138.1394  170.7986 H       1  UNL1        0.2414
     22 C         137.7471  138.7984  161.5685 C.3     1  UNL1        0.0686
     23 N         138.2701  137.6470  162.3751 N.3     1  UNL1       -0.2983
     24 H         138.9415  137.1552  161.7854 H       1  UNL1        0.1232
     25 C         138.9501  137.8988  163.6883 C.3     1  UNL1        0.0584
     26 C         138.9103  137.9266  165.1874 C.3     1  UNL1        0.0217
     27 C         140.1677  138.3069  164.4635 C.3     1  UNL1        0.0381
     28 C         141.5966  138.7622  164.4930 C.ar    1  UNL1       -0.0212
     29 C         142.5435  138.1954  165.5090 C.ar    1  UNL1       -0.0042
     30 C         143.9724  138.6506  165.5385 C.ar    1  UNL1       -0.0003
     31 C         144.4545  139.6727  164.5520 C.ar    1  UNL1       -0.0000
     32 C         143.5076  140.2395  163.5360 C.ar    1  UNL1       -0.0003
     33 C         142.0786  139.7842  163.5066 C.ar    1  UNL1       -0.0042
@<TRIPOS>BOND
     1    16    17    2
     2    17    18   am
     3    18    19    1
     4    17    10    1
     5    10    11   ar
     6    11    12   ar
     7    12    13   ar
     8    13     9    1
     9     9     8    1
    10     8     7    1
    11     7     1    1
    12     1     2    1
    13     2     3    1
    14     3     4    1
    15     4    22    1
    16    22    23    1
    17    25    23    1
    18    25    26    1
    19    26    27    1
    20    27    28    1
    21    28    29   ar
    22    29    30   ar
    23    30    31   ar
    24    31    32   ar
    25    32    33   ar
    26     4     5    1
    27     5     6    1
    28    13    14   ar
    29    14    15   ar
    30    15    10   ar
    31     6     1    1
    32    27    25    1
    33    33    28   ar
    34    18    20    1
    35    19    21    1
    36    23    24    1
@<TRIPOS>MOLECULE
*****
 33 36 0 0 0
SMALL
GASTEIGER

@<TRIPOS>ATOM
      1 N         144.0928  143.0109  162.5398 N.3     1  UNL1       -0.2727
      2 C         143.9731  144.1186  163.5440 C.3     1  UNL1        0.0721
      3 C         142.7802  145.0279  163.5192 C.3     1  UNL1        0.0187
      4 C         141.7072  144.8293  162.4901 C.3     1  UNL1        0.0185
      5 C         141.8269  143.7214  161.4858 C.3     1  UNL1        0.0187
      6 C         143.0197  142.8123  161.5107 C.3     1  UNL1        0.0721
      7 C         145.2856  142.1016  162.5647 C.3     1  UNL1        0.0724
      8 C         145.3849  141.0230  163.6023 C.3     1  UNL1        0.0220
      9 C         144.1855  140.1833  163.9285 C.3     1  UNL1        0.0278
     10 C         142.5193  140.1676  168.1086 C.ar    1  UNL1        0.0553
     11 C         142.6652  141.4616  167.3642 C.ar    1  UNL1        0.0043
     12 C         143.2206  141.4669  165.9709 C.ar    1  UNL1       -0.0041
     13 C         143.6301  140.1781  165.3219 C.ar    1  UNL1       -0.0221
     14 C         143.4842  138.8841  166.0662 C.ar    1  UNL1       -0.0041
     15 C         142.9288  138.8788  167.4596 C.ar    1  UNL1        0.0043
     16 O         140.5935  139.6101  169.7611 O.2     1  UNL1       -0.2681
     17 C         141.9639  140.1624  169.5020 C.2     1  UNL1        0.2677
     18 N         142.7788  140.7093  170.6363 N.am    1  UNL1       -0.1934
     19 O         142.2234  140.7041  172.0296 O.3     1  UNL1       -0.2949
     20 H         143.6782  141.0718  170.4662 H       1  UNL1        0.1825
     21 H         141.3344  140.3160  172.0219 H       1  UNL1        0.2414
     22 C         140.5144  145.7384  162.4651 C.3     1  UNL1        0.0686
     23 N         139.2463  145.3309  163.1549 N.3     1  UNL1       -0.2983
     24 H         138.6922  144.8148  162.4715 H       1  UNL1        0.1232
     25 C         139.3040  144.4857  164.3928 C.3     1  UNL1        0.0584
     26 C         139.2435  144.3639  165.8866 C.3     1  UNL1        0.0217
     27 C         139.4646  143.1435  165.0430 C.3     1  UNL1        0.0381
     28 C         139.6849  141.6640  164.9313 C.ar    1  UNL1       -0.0212
     29 C         140.2697  141.0854  163.6770 C.ar    1  UNL1       -0.0042
     30 C         140.4901  139.6059  163.5654 C.ar    1  UNL1       -0.0003
     31 C         140.1255  138.7049  164.7080 C.ar    1  UNL1       -0.0000
     32 C         139.5407  139.2835  165.9622 C.ar    1  UNL1       -0.0003
     33 C         139.3204  140.7631  166.0739 C.ar    1  UNL1       -0.0042
@<TRIPOS>BOND
     1    16    17    2
     2    17    18   am
     3    18    19    1
     4    17    10    1
     5    10    11   ar
     6    11    12   ar
     7    12    13   ar
     8    13     9    1
     9     9     8    1
    10     8     7    1
    11     7     1    1
    12     1     2    1
    13     2     3    1
    14     3     4    1
    15     4    22    1
    16    22    23    1
    17    25    23    1
    18    25    26    1
    19    26    27    1
    20    27    28    1
    21    28    29   ar
    22    29    30   ar
    23    30    31   ar
    24    31    32   ar
    25    32    33   ar
    26     4     5    1
    27     5     6    1
    28    13    14   ar
    29    14    15   ar
    30    15    10   ar
    31     6     1    1
    32    27    25    1
    33    33    28   ar
    34    18    20    1
    35    19    21    1
    36    23    24    1
@<TRIPOS>MOLECULE
*****
 33 36 0 0 0
SMALL
GASTEIGER

@<TRIPOS>ATOM
      1 N         139.8888  138.8852  162.6303 N.3     1  UNL1       -0.2727
      2 C         138.4845  139.2449  163.0160 C.3     1  UNL1        0.0721
      3 C         137.9239  140.5850  162.6419 C.3     1  UNL1        0.0187
      4 C         138.7676  141.5654  161.8822 C.3     1  UNL1        0.0185
      5 C         140.1719  141.2056  161.4966 C.3     1  UNL1        0.0187
      6 C         140.7324  139.8655  161.8707 C.3     1  UNL1        0.0721
      7 C         140.4494  137.5450  163.0044 C.3     1  UNL1        0.0724
      8 C         141.3024  137.4045  164.2302 C.3     1  UNL1        0.0220
      9 C         141.9737  138.6098  164.8189 C.3     1  UNL1        0.0278
     10 C         140.4845  140.3469  168.6938 C.ar    1  UNL1        0.0553
     11 C         141.9293  139.9719  168.5462 C.ar    1  UNL1        0.0043
     12 C         142.4257  139.3929  167.2546 C.ar    1  UNL1       -0.0041
     13 C         141.4773  139.1888  166.1106 C.ar    1  UNL1       -0.0221
     14 C         140.0325  139.5638  166.2582 C.ar    1  UNL1       -0.0041
     15 C         139.5361  140.1428  167.5498 C.ar    1  UNL1        0.0043
     16 O         138.5501  140.7598  170.3782 O.2     1  UNL1       -0.2681
     17 C         139.9881  140.9259  169.9855 C.2     1  UNL1        0.2677
     18 N         140.9298  141.6710  170.8843 N.am    1  UNL1       -0.1934
     19 O         140.4334  142.2500  172.1760 O.3     1  UNL1       -0.2949
     20 H         141.8737  141.7800  170.6266 H       1  UNL1        0.1825
     21 H         139.4887  142.0541  172.2762 H       1  UNL1        0.2414
     22 C         138.2071  142.9054  161.5082 C.3     1  UNL1        0.0686
     23 N         137.5692  143.7701  162.5547 N.3     1  UNL1       -0.2983
     24 H         136.7311  143.2815  162.8696 H       1  UNL1        0.1232
     25 C         138.3382  144.1486  163.7858 C.3     1  UNL1        0.0584
     26 C         138.3690  144.7064  165.1778 C.3     1  UNL1        0.0217
     27 C         139.6392  144.2462  164.5259 C.3     1  UNL1        0.0381
     28 C         141.1236  144.0369  164.5769 C.ar    1  UNL1       -0.0212
     29 C         142.0421  145.0117  163.9017 C.ar    1  UNL1       -0.0042
     30 C         143.5265  144.8024  163.9526 C.ar    1  UNL1       -0.0003
     31 C         144.0925  143.6181  164.6788 C.ar    1  UNL1       -0.0000
     32 C         143.1739  142.6432  165.3540 C.ar    1  UNL1       -0.0003
     33 C         141.6895  142.8526  165.3031 C.ar    1  UNL1       -0.0042
@<TRIPOS>BOND
     1    16    17    2
     2    17    18   am
     3    18    19    1
     4    17    10    1
     5    10    11   ar
     6    11    12   ar
     7    12    13   ar
     8    13     9    1
     9     9     8    1
    10     8     7    1
    11     7     1    1
    12     1     2    1
    13     2     3    1
    14     3     4    1
    15     4    22    1
    16    22    23    1
    17    25    23    1
    18    25    26    1
    19    26    27    1
    20    27    28    1
    21    28    29   ar
    22    29    30   ar
    23    30    31   ar
    24    31    32   ar
    25    32    33   ar
    26     4     5    1
    27     5     6    1
    28    13    14   ar
    29    14    15   ar
    30    15    10   ar
    31     6     1    1
    32    27    25    1
    33    33    28   ar
    34    18    20    1
    35    19    21    1
    36    23    24    1
@<TRIPOS>MOLECULE
*****
 33 36 0 0 0
SMALL
GASTEIGER

@<TRIPOS>ATOM
      1 N         139.3594  143.7417  162.7094 N.3     1  UNL1       -0.2727
      2 C         139.9737  144.5767  163.7935 C.3     1  UNL1        0.0721
      3 C         141.4458  144.8643  163.7756 C.3     1  UNL1        0.0187
      4 C         142.3035  144.3169  162.6735 C.3     1  UNL1        0.0185
      5 C         141.6892  143.4819  161.5893 C.3     1  UNL1        0.0187
      6 C         140.2171  143.1943  161.6073 C.3     1  UNL1        0.0721
      7 C         137.8873  143.4540  162.7274 C.3     1  UNL1        0.0724
      8 C         137.3865  142.1378  163.2438 C.3     1  UNL1        0.0220
      9 C         138.3461  141.0077  163.4723 C.3     1  UNL1        0.0278
     10 C         139.8639  140.1486  167.6206 C.ar    1  UNL1        0.0553
     11 C         140.5219  141.2065  166.7853 C.ar    1  UNL1        0.0043
     12 C         140.0160  141.4929  165.4026 C.ar    1  UNL1       -0.0041
     13 C         138.8520  140.7214  164.8551 C.ar    1  UNL1       -0.0221
     14 C         138.1939  139.6635  165.6904 C.ar    1  UNL1       -0.0041
     15 C         138.6999  139.3771  167.0731 C.ar    1  UNL1        0.0043
     16 O         141.8391  139.6764  169.2408 O.2     1  UNL1       -0.2681
     17 C         140.3698  139.8623  169.0034 C.2     1  UNL1        0.2677
     18 N         139.4064  139.7618  170.1486 N.am    1  UNL1       -0.1934
     19 O         139.9123  139.4754  171.5314 O.3     1  UNL1       -0.2949
     20 H         138.4420  139.8838  169.9928 H       1  UNL1        0.1825
     21 H         140.8777  139.3836  171.5099 H       1  UNL1        0.2414
     22 C         143.7756  144.6045  162.6555 C.3     1  UNL1        0.0686
     23 N         144.7407  143.5480  162.2058 N.3     1  UNL1       -0.2983
     24 H         145.6434  144.0067  162.0831 H       1  UNL1        0.1232
     25 C         144.9818  142.3394  163.0610 C.3     1  UNL1        0.0584
     26 C         145.8892  141.5290  163.9384 C.3     1  UNL1        0.0217
     27 C         144.4921  141.0565  163.6647 C.3     1  UNL1        0.0381
     28 C         143.4028  140.0432  163.8553 C.ar    1  UNL1       -0.0212
     29 C         143.3416  139.2363  165.1183 C.ar    1  UNL1       -0.0042
     30 C         142.2523  138.2229  165.3089 C.ar    1  UNL1       -0.0003
     31 C         141.2241  138.0163  164.2363 C.ar    1  UNL1       -0.0000
     32 C         141.2853  138.8232  162.9733 C.ar    1  UNL1       -0.0003
     33 C         142.3747  139.8366  162.7828 C.ar    1  UNL1       -0.0042
@<TRIPOS>BOND
     1    16    17    2
     2    17    18   am
     3    18    19    1
     4    17    10    1
     5    10    11   ar
     6    11    12   ar
     7    12    13   ar
     8    13     9    1
     9     9     8    1
    10     8     7    1
    11     7     1    1
    12     1     2    1
    13     2     3    1
    14     3     4    1
    15     4    22    1
    16    22    23    1
    17    25    23    1
    18    25    26    1
    19    26    27    1
    20    27    28    1
    21    28    29   ar
    22    29    30   ar
    23    30    31   ar
    24    31    32   ar
    25    32    33   ar
    26     4     5    1
    27     5     6    1
    28    13    14   ar
    29    14    15   ar
    30    15    10   ar
    31     6     1    1
    32    27    25    1
    33    33    28   ar
    34    18    20    1
    35    19    21    1
    36    23    24    1
@<TRIPOS>MOLECULE
*****
 33 36 0 0 0
SMALL
GASTEIGER

@<TRIPOS>ATOM
      1 N         141.5938  138.9319  164.6415 N.3     1  UNL1       -0.2727
      2 C         142.4352  139.6391  165.6622 C.3     1  UNL1        0.0721
      3 C         143.6408  140.4198  165.2297 C.3     1  UNL1        0.0187
      4 C         144.0050  140.4934  163.7765 C.3     1  UNL1        0.0185
      5 C         143.1635  139.7862  162.7557 C.3     1  UNL1        0.0187
      6 C         141.9579  139.0055  163.1882 C.3     1  UNL1        0.0721
      7 C         140.3881  138.1512  165.0740 C.3     1  UNL1        0.0724
      8 C         139.1023  138.8626  165.3749 C.3     1  UNL1        0.0220
      9 C         138.6918  139.1002  166.7979 C.3     1  UNL1        0.0278
     10 C         140.6422  142.3788  169.1847 C.ar    1  UNL1        0.0553
     11 C         139.9928  141.2239  169.8878 C.ar    1  UNL1        0.0043
     12 C         139.3426  140.1310  169.0922 C.ar    1  UNL1       -0.0041
     13 C         139.3420  140.1931  167.5935 C.ar    1  UNL1       -0.0221
     14 C         139.9914  141.3480  166.8904 C.ar    1  UNL1       -0.0041
     15 C         140.6416  142.4408  167.6860 C.ar    1  UNL1        0.0043
     16 O         140.5418  144.7380  170.2682 O.2     1  UNL1       -0.2681
     17 C         141.2924  143.4716  169.9803 C.2     1  UNL1        0.2677
     18 N         142.6931  143.2982  170.4880 N.am    1  UNL1       -0.1934
     19 O         143.3432  144.3910  171.2836 O.3     1  UNL1       -0.2949
     20 H         143.1858  142.4670  170.2990 H       1  UNL1        0.1825
     21 H         142.7261  145.1334  171.3777 H       1  UNL1        0.2414
     22 C         145.2105  141.2741  163.3440 C.3     1  UNL1        0.0686
     23 N         145.0485  142.6594  162.7921 N.3     1  UNL1       -0.2983
     24 H         144.7511  142.5569  161.8219 H       1  UNL1        0.1232
     25 C         144.0928  143.6175  163.4392 C.3     1  UNL1        0.0584
     26 C         143.8335  144.9128  164.1498 C.3     1  UNL1        0.0217
     27 C         142.6966  143.9816  163.8493 C.3     1  UNL1        0.0381
     28 C         141.2342  143.6542  163.9126 C.ar    1  UNL1       -0.0212
     29 C         140.7168  142.4039  163.2653 C.ar    1  UNL1       -0.0042
     30 C         139.2544  142.0765  163.3285 C.ar    1  UNL1       -0.0003
     31 C         138.3092  142.9995  164.0391 C.ar    1  UNL1       -0.0000
     32 C         138.8266  144.2498  164.6864 C.ar    1  UNL1       -0.0003
     33 C         140.2891  144.5772  164.6231 C.ar    1  UNL1       -0.0042
@<TRIPOS>BOND
     1    16    17    2
     2    17    18   am
     3    18    19    1
     4    17    10    1
     5    10    11   ar
     6    11    12   ar
     7    12    13   ar
     8    13     9    1
     9     9     8    1
    10     8     7    1
    11     7     1    1
    12     1     2    1
    13     2     3    1
    14     3     4    1
    15     4    22    1
    16    22    23    1
    17    25    23    1
    18    25    26    1
    19    26    27    1
    20    27    28    1
    21    28    29   ar
    22    29    30   ar
    23    30    31   ar
    24    31    32   ar
    25    32    33   ar
    26     4     5    1
    27     5     6    1
    28    13    14   ar
    29    14    15   ar
    30    15    10   ar
    31     6     1    1
    32    27    25    1
    33    33    28   ar
    34    18    20    1
    35    19    21    1
    36    23    24    1
@<TRIPOS>MOLECULE
*****
 33 36 0 0 0
SMALL
GASTEIGER

@<TRIPOS>ATOM
      1 N         141.4594  138.5210  163.7195 N.3     1  UNL1       -0.2727
      2 C         142.3409  138.4268  164.9295 C.3     1  UNL1        0.0721
      3 C         143.4576  139.4097  165.1222 C.3     1  UNL1        0.0187
      4 C         143.6926  140.4868  164.1050 C.3     1  UNL1        0.0185
      5 C         142.8110  140.5809  162.8950 C.3     1  UNL1        0.0187
      6 C         141.6944  139.5981  162.7023 C.3     1  UNL1        0.0721
      7 C         140.3427  137.5382  163.5268 C.3     1  UNL1        0.0724
      8 C         138.9171  137.9930  163.6299 C.3     1  UNL1        0.0220
      9 C         138.6031  139.3642  164.1507 C.3     1  UNL1        0.0278
     10 C         139.3075  140.3399  168.4868 C.ar    1  UNL1        0.0553
     11 C         140.0556  141.0827  167.4198 C.ar    1  UNL1        0.0043
     12 C         139.8208  140.7575  165.9744 C.ar    1  UNL1       -0.0041
     13 C         138.8379  139.6894  165.5961 C.ar    1  UNL1       -0.0221
     14 C         138.0898  138.9467  166.6631 C.ar    1  UNL1       -0.0041
     15 C         138.3246  139.2719  168.1085 C.ar    1  UNL1        0.0043
     16 O         139.5368  139.5706  170.9577 O.2     1  UNL1       -0.2681
     17 C         139.5423  140.6652  169.9322 C.2     1  UNL1        0.2677
     18 N         139.7826  142.0850  170.3520 N.am    1  UNL1       -0.1934
     19 O         140.0174  142.4103  171.7974 O.3     1  UNL1       -0.2949
     20 H         139.7862  142.8034  169.6789 H       1  UNL1        0.1825
     21 H         139.9815  141.5953  172.3221 H       1  UNL1        0.2414
     22 C         144.8092  141.4696  164.2977 C.3     1  UNL1        0.0686
     23 N         144.5454  142.7807  164.9768 N.3     1  UNL1       -0.2983
     24 H         145.4459  143.2506  165.0699 H       1  UNL1        0.1232
     25 C         143.6028  143.7698  164.3576 C.3     1  UNL1        0.0584
     26 C         143.3633  145.0812  163.6701 C.3     1  UNL1        0.0217
     27 C         142.2098  144.1715  163.9728 C.3     1  UNL1        0.0381
     28 C         140.7395  143.8782  163.9253 C.ar    1  UNL1       -0.0212
     29 C         139.8336  144.4104  164.9959 C.ar    1  UNL1       -0.0042
     30 C         138.3634  144.1171  164.9484 C.ar    1  UNL1       -0.0003
     31 C         137.7990  143.2915  163.8304 C.ar    1  UNL1       -0.0000
     32 C         138.7049  142.7592  162.7599 C.ar    1  UNL1       -0.0003
     33 C         140.1752  143.0526  162.8074 C.ar    1  UNL1       -0.0042
@<TRIPOS>BOND
     1    16    17    2
     2    17    18   am
     3    18    19    1
     4    17    10    1
     5    10    11   ar
     6    11    12   ar
     7    12    13   ar
     8    13     9    1
     9     9     8    1
    10     8     7    1
    11     7     1    1
    12     1     2    1
    13     2     3    1
    14     3     4    1
    15     4    22    1
    16    22    23    1
    17    25    23    1
    18    25    26    1
    19    26    27    1
    20    27    28    1
    21    28    29   ar
    22    29    30   ar
    23    30    31   ar
    24    31    32   ar
    25    32    33   ar
    26     4     5    1
    27     5     6    1
    28    13    14   ar
    29    14    15   ar
    30    15    10   ar
    31     6     1    1
    32    27    25    1
    33    33    28   ar
    34    18    20    1
    35    19    21    1
    36    23    24    1
@<TRIPOS>MOLECULE
*****
 33 36 0 0 0
SMALL
GASTEIGER

@<TRIPOS>ATOM
      1 N         143.6464  140.3161  164.0823 N.3     1  UNL1       -0.2727
      2 C         143.2678  139.2832  165.1019 C.3     1  UNL1        0.0721
      3 C         142.1866  138.2891  164.7968 C.3     1  UNL1        0.0187
      4 C         141.4841  138.3281  163.4721 C.3     1  UNL1        0.0185
      5 C         141.8627  139.3611  162.4524 C.3     1  UNL1        0.0187
      6 C         142.9439  140.3550  162.7576 C.3     1  UNL1        0.0721
      7 C         144.7276  141.3101  164.3874 C.3     1  UNL1        0.0724
      8 C         144.3819  142.6206  165.0301 C.3     1  UNL1        0.0220
      9 C         142.9598  142.9230  165.3989 C.3     1  UNL1        0.0278
     10 C         141.2472  141.3372  169.2463 C.ar    1  UNL1        0.0553
     11 C         140.4225  141.3168  167.9936 C.ar    1  UNL1        0.0043
     12 C         140.9933  141.8454  166.7111 C.ar    1  UNL1       -0.0041
     13 C         142.3889  142.3944  166.6814 C.ar    1  UNL1       -0.0221
     14 C         143.2136  142.4148  167.9341 C.ar    1  UNL1       -0.0041
     15 C         142.6428  141.8862  169.2166 C.ar    1  UNL1        0.0043
     16 O         140.7160  141.6495  171.7702 O.2     1  UNL1       -0.2681
     17 C         140.6764  140.8086  170.5288 C.2     1  UNL1        0.2677
     18 N         140.0659  139.4391  170.5698 N.am    1  UNL1       -0.1934
     19 O         139.4950  138.9105  171.8522 O.3     1  UNL1       -0.2949
     20 H         140.0398  138.8872  169.7550 H       1  UNL1        0.1825
     21 H         139.6008  139.5747  172.5513 H       1  UNL1        0.2414
     22 C         140.4029  137.3341  163.1670 C.3     1  UNL1        0.0686
     23 N         138.9708  137.6701  163.4603 N.3     1  UNL1       -0.2983
     24 H         138.5507  136.8359  163.8703 H       1  UNL1        0.1232
     25 C         138.6404  138.8143  164.3724 C.3     1  UNL1        0.0584
     26 C         138.1764  139.3202  165.7060 C.3     1  UNL1        0.0217
     27 C         138.5323  140.2900  164.6184 C.3     1  UNL1        0.0381
     28 C         138.6753  141.7018  164.1326 C.ar    1  UNL1       -0.0212
     29 C         137.7508  142.7676  164.6419 C.ar    1  UNL1       -0.0042
     30 C         137.8939  144.1795  164.1560 C.ar    1  UNL1       -0.0003
     31 C         138.9615  144.5256  163.1607 C.ar    1  UNL1       -0.0000
     32 C         139.8860  143.4599  162.6514 C.ar    1  UNL1       -0.0003
     33 C         139.7429  142.0479  163.1374 C.ar    1  UNL1       -0.0042
@<TRIPOS>BOND
     1    16    17    2
     2    17    18   am
     3    18    19    1
     4    17    10    1
     5    10    11   ar
     6    11    12   ar
     7    12    13   ar
     8    13     9    1
     9     9     8    1
    10     8     7    1
    11     7     1    1
    12     1     2    1
    13     2     3    1
    14     3     4    1
    15     4    22    1
    16    22    23    1
    17    25    23    1
    18    25    26    1
    19    26    27    1
    20    27    28    1
    21    28    29   ar
    22    29    30   ar
    23    30    31   ar
    24    31    32   ar
    25    32    33   ar
    26     4     5    1
    27     5     6    1
    28    13    14   ar
    29    14    15   ar
    30    15    10   ar
    31     6     1    1
    32    27    25    1
    33    33    28   ar
    34    18    20    1
    35    19    21    1
    36    23    24    1
@<TRIPOS>MOLECULE
*****
 33 36 0 0 0
SMALL
GASTEIGER

@<TRIPOS>ATOM
      1 N         140.5203  138.4934  162.8044 N.3     1  UNL1       -0.2727
      2 C         141.8478  137.8116  162.9560 C.3     1  UNL1        0.0721
      3 C         143.1066  138.5243  162.5590 C.3     1  UNL1        0.0187
      4 C         143.0379  139.9187  162.0104 C.3     1  UNL1        0.0185
      5 C         141.7103  140.6005  161.8589 C.3     1  UNL1        0.0187
      6 C         140.4516  139.8878  162.2559 C.3     1  UNL1        0.0721
      7 C         139.2615  137.7807  163.2014 C.3     1  UNL1        0.0724
      8 C         138.7892  137.8290  164.6244 C.3     1  UNL1        0.0220
      9 C         138.7460  139.1375  165.3563 C.3     1  UNL1        0.0278
     10 C         141.6891  139.9674  168.6576 C.ar    1  UNL1        0.0553
     11 C         142.1803  139.5657  167.2985 C.ar    1  UNL1        0.0043
     12 C         141.1992  139.2890  166.1980 C.ar    1  UNL1       -0.0041
     13 C         139.7270  139.4142  166.4567 C.ar    1  UNL1       -0.0221
     14 C         139.2359  139.8159  167.8159 C.ar    1  UNL1       -0.0041
     15 C         140.2170  140.0926  168.9163 C.ar    1  UNL1        0.0043
     16 O         143.1133  141.6507  170.0318 O.2     1  UNL1       -0.2681
     17 C         142.6702  140.2441  169.7581 C.2     1  UNL1        0.2677
     18 N         143.2081  139.1141  170.5849 N.am    1  UNL1       -0.1934
     19 O         144.1892  139.3907  171.6853 O.3     1  UNL1       -0.2949
     20 H         142.9173  138.1908  170.4053 H       1  UNL1        0.1825
     21 H         144.3673  140.3433  171.7278 H       1  UNL1        0.2414
     22 C         144.2966  140.6314  161.6134 C.3     1  UNL1        0.0686
     23 N         144.9511  141.5855  162.5680 N.3     1  UNL1       -0.2983
     24 H         145.8804  141.7825  162.1965 H       1  UNL1        0.1232
     25 C         144.3118  142.9106  162.8604 C.3     1  UNL1        0.0584
     26 C         144.3215  144.4074  162.7625 C.3     1  UNL1        0.0217
     27 C         143.1950  143.7090  163.4648 C.3     1  UNL1        0.0381
     28 C         141.8998  143.7666  164.2191 C.ar    1  UNL1       -0.0212
     29 C         141.7064  142.9213  165.4430 C.ar    1  UNL1       -0.0042
     30 C         140.4112  142.9789  166.1974 C.ar    1  UNL1       -0.0003
     31 C         139.3093  143.8820  165.7279 C.ar    1  UNL1       -0.0000
     32 C         139.5027  144.7274  164.5039 C.ar    1  UNL1       -0.0003
     33 C         140.7980  144.6697  163.7496 C.ar    1  UNL1       -0.0042
@<TRIPOS>BOND
     1    16    17    2
     2    17    18   am
     3    18    19    1
     4    17    10    1
     5    10    11   ar
     6    11    12   ar
     7    12    13   ar
     8    13     9    1
     9     9     8    1
    10     8     7    1
    11     7     1    1
    12     1     2    1
    13     2     3    1
    14     3     4    1
    15     4    22    1
    16    22    23    1
    17    25    23    1
    18    25    26    1
    19    26    27    1
    20    27    28    1
    21    28    29   ar
    22    29    30   ar
    23    30    31   ar
    24    31    32   ar
    25    32    33   ar
    26     4     5    1
    27     5     6    1
    28    13    14   ar
    29    14    15   ar
    30    15    10   ar
    31     6     1    1
    32    27    25    1
    33    33    28   ar
    34    18    20    1
    35    19    21    1
    36    23    24    1
@<TRIPOS>MOLECULE
*****
 33 36 0 0 0
SMALL
GASTEIGER

@<TRIPOS>ATOM
      1 N         140.1380  138.5987  164.1547 N.3     1  UNL1       -0.2727
      2 C         140.2793  138.9882  162.7130 C.3     1  UNL1        0.0721
      3 C         139.4725  140.1258  162.1609 C.3     1  UNL1        0.0187
      4 C         138.5243  140.8740  163.0504 C.3     1  UNL1        0.0185
      5 C         138.3830  140.4845  164.4921 C.3     1  UNL1        0.0187
      6 C         139.1898  139.3469  165.0442 C.3     1  UNL1        0.0721
      7 C         140.9448  137.4611  164.7068 C.3     1  UNL1        0.0724
      8 C         142.3702  137.6827  165.1181 C.3     1  UNL1        0.0220
      9 C         142.9737  139.0527  165.0235 C.3     1  UNL1        0.0278
     10 C         142.7271  141.8668  168.5264 C.ar    1  UNL1        0.0553
     11 C         142.5947  140.3883  168.7414 C.ar    1  UNL1        0.0043
     12 C         142.6769  139.4502  167.5738 C.ar    1  UNL1       -0.0041
     13 C         142.8915  139.9907  166.1912 C.ar    1  UNL1       -0.0221
     14 C         143.0240  141.4693  165.9761 C.ar    1  UNL1       -0.0041
     15 C         142.9418  142.4073  167.1437 C.ar    1  UNL1        0.0043
     16 O         141.3082  143.2767  170.1843 O.2     1  UNL1       -0.2681
     17 C         142.6449  142.8049  169.6940 C.2     1  UNL1        0.2677
     18 N         143.8995  143.2712  170.3712 N.am    1  UNL1       -0.1934
     19 O         143.8172  144.2092  171.5388 O.3     1  UNL1       -0.2949
     20 H         144.7768  142.9615  170.0494 H       1  UNL1        0.1825
     21 H         142.8874  144.4133  171.7247 H       1  UNL1        0.2414
     22 C         137.7175  142.0116  162.4983 C.3     1  UNL1        0.0686
     23 N         137.3993  143.1947  163.3637 N.3     1  UNL1       -0.2983
     24 H         136.7658  142.8651  164.0919 H       1  UNL1        0.1232
     25 C         138.5044  143.9373  164.0548 C.3     1  UNL1        0.0584
     26 C         138.9644  144.8741  165.1321 C.3     1  UNL1        0.0217
     27 C         139.9582  144.2867  164.1744 C.3     1  UNL1        0.0381
     28 C         141.3713  144.1492  163.6905 C.ar    1  UNL1       -0.0212
     29 C         142.3707  145.2305  163.9770 C.ar    1  UNL1       -0.0042
     30 C         143.7838  145.0930  163.4930 C.ar    1  UNL1       -0.0003
     31 C         144.1976  143.8742  162.7226 C.ar    1  UNL1       -0.0000
     32 C         143.1982  142.7930  162.4362 C.ar    1  UNL1       -0.0003
     33 C         141.7850  142.9305  162.9201 C.ar    1  UNL1       -0.0042
@<TRIPOS>BOND
     1    16    17    2
     2    17    18   am
     3    18    19    1
     4    17    10    1
     5    10    11   ar
     6    11    12   ar
     7    12    13   ar
     8    13     9    1
     9     9     8    1
    10     8     7    1
    11     7     1    1
    12     1     2    1
    13     2     3    1
    14     3     4    1
    15     4    22    1
    16    22    23    1
    17    25    23    1
    18    25    26    1
    19    26    27    1
    20    27    28    1
    21    28    29   ar
    22    29    30   ar
    23    30    31   ar
    24    31    32   ar
    25    32    33   ar
    26     4     5    1
    27     5     6    1
    28    13    14   ar
    29    14    15   ar
    30    15    10   ar
    31     6     1    1
    32    27    25    1
    33    33    28   ar
    34    18    20    1
    35    19    21    1
    36    23    24    1
