@<TRIPOS>MOLECULE
*****
 35 38 0 0 0
SMALL
GASTEIGER

@<TRIPOS>ATOM
      1 C         141.8752  140.9108  168.7838 C.ar    1  UNL1        0.0849
      2 C         140.6339  140.5132  169.5260 C.ar    1  UNL1        0.0102
      3 C         139.4382  140.0104  168.7727 C.ar    1  UNL1        0.0343
      4 C         139.4840  139.9051  167.2771 C.ar    1  UNL1        0.1299
      5 N         140.7253  140.3027  166.5349 N.ar    1  UNL1       -0.2160
      6 C         141.9210  140.8055  167.2883 C.ar    1  UNL1        0.1379
      7 N         143.6274  140.6165  170.6795 N.am    1  UNL1       -0.3252
      8 C         143.0709  141.4137  169.5372 C.2     1  UNL1        0.2455
      9 O         143.7101  142.7137  169.1483 O.2     1  UNL1       -0.2703
     10 H         144.4121  140.9465  171.1739 H       1  UNL1        0.1453
     11 H         143.2079  139.7632  170.9347 H       1  UNL1        0.1453
     12 N         138.2883  139.4022  166.5237 N.pl3   1  UNL1       -0.3184
     13 H         137.4407  139.2395  166.9974 H       1  UNL1        0.1482
     14 C         138.3841  139.1472  165.0487 C.3     1  UNL1        0.0844
     15 C         138.8446  137.8107  164.5469 C.3     1  UNL1        0.0209
     16 C         138.9403  137.5557  163.0719 C.3     1  UNL1        0.0018
     17 C         138.5756  138.6372  162.0985 C.3     1  UNL1        0.0015
     18 C         138.1151  139.9737  162.6003 C.3     1  UNL1        0.0172
     19 C         138.0193  140.2287  164.0754 C.3     1  UNL1        0.0689
     20 N         137.5588  141.5652  164.5771 N.3     1  UNL1       -0.3209
     21 H         137.3548  142.1740  163.7845 H       1  UNL1        0.1189
     22 H         138.2921  141.9850  165.1484 H       1  UNL1        0.1189
     23 N         143.1624  141.2031  166.5460 N.pl3   1  UNL1       -0.2977
     24 H         143.9694  140.6419  166.6004 H       1  UNL1        0.1536
     25 C         143.1741  142.4557  165.7209 C.ar    1  UNL1        0.0509
     26 C         144.4299  143.2684  165.6091 C.ar    1  UNL1        0.0147
     27 C         144.4415  144.5211  164.7839 C.ar    1  UNL1        0.0029
     28 C         143.1975  144.9609  164.0706 C.ar    1  UNL1        0.0210
     29 C         141.9417  144.1482  164.1824 C.ar    1  UNL1        0.1041
     30 C         141.9300  142.8956  165.0075 C.ar    1  UNL1        0.0355
     31 N         140.6977  144.5880  163.4691 N.ar    1  UNL1       -0.1478
     32 N         139.3209  144.0279  163.6710 N.ar    1  UNL1       -0.1447
     33 C         138.3843  144.7589  162.7554 C.ar    1  UNL1        0.1446
     34 C         139.1822  145.7709  161.9876 C.ar    1  UNL1        0.1446
     35 N         140.6119  145.6652  162.4288 N.ar    1  UNL1       -0.1447
@<TRIPOS>BOND
     1     7     8   am
     2     8     9    2
     3     8     1    1
     4     1     2   ar
     5     2     3   ar
     6     3     4   ar
     7     4    12    1
     8    14    12    1
     9    14    15    1
    10    15    16    1
    11    16    17    1
    12    17    18    1
    13    18    19    1
    14    19    20    1
    15     4     5   ar
    16     5     6   ar
    17     6    23    1
    18    23    25    1
    19    25    26   ar
    20    26    27   ar
    21    27    28   ar
    22    28    29   ar
    23    29    31    1
    24    31    32   ar
    25    32    33   ar
    26    33    34   ar
    27    34    35   ar
    28    29    30   ar
    29     6     1   ar
    30    30    25   ar
    31    19    14    1
    32    35    31   ar
    33     7    10    1
    34     7    11    1
    35    12    13    1
    36    20    21    1
    37    20    22    1
    38    23    24    1
@<TRIPOS>MOLECULE
*****
 35 38 0 0 0
SMALL
GASTEIGER

@<TRIPOS>ATOM
      1 C         138.3517  138.8898  163.0495 C.ar    1  UNL1        0.0849
      2 C         138.9747  137.7451  163.7920 C.ar    1  UNL1        0.0102
      3 C         139.0873  137.7934  165.2870 C.ar    1  UNL1        0.0343
      4 C         138.5769  138.9863  166.0394 C.ar    1  UNL1        0.1299
      5 N         137.9538  140.1310  165.2969 N.ar    1  UNL1       -0.2160
      6 C         137.8412  140.0828  163.8019 C.ar    1  UNL1        0.1379
      7 N         139.2934  138.1467  160.7450 N.am    1  UNL1       -0.3252
      8 C         138.2391  138.8416  161.5545 C.2     1  UNL1        0.2455
      9 O         137.0721  139.4882  160.8690 O.2     1  UNL1       -0.2703
     10 H         139.2195  138.1150  159.7638 H       1  UNL1        0.1453
     11 H         140.0594  137.7223  161.1949 H       1  UNL1        0.1453
     12 N         138.6895  139.0346  167.5344 N.pl3   1  UNL1       -0.3184
     13 H         138.2808  138.3258  168.0820 H       1  UNL1        0.1482
     14 C         139.4248  140.1627  168.1951 C.3     1  UNL1        0.0844
     15 C         140.4811  140.9137  167.4399 C.3     1  UNL1        0.0209
     16 C         141.2165  142.0418  168.1007 C.3     1  UNL1        0.0018
     17 C         140.8956  142.4190  169.5166 C.3     1  UNL1        0.0015
     18 C         139.8393  141.6680  170.2718 C.3     1  UNL1        0.0172
     19 C         139.1039  140.5398  169.6110 C.3     1  UNL1        0.0689
     20 N         138.0477  139.7889  170.3662 N.3     1  UNL1       -0.3209
     21 H         137.9617  140.1758  171.3061 H       1  UNL1        0.1189
     22 H         138.3078  138.8044  170.4264 H       1  UNL1        0.1189
     23 N         137.2181  141.2276  163.0594 N.pl3   1  UNL1       -0.2977
     24 H         136.3219  141.1285  162.6642 H       1  UNL1        0.1536
     25 C         137.9605  142.5234  162.9191 C.ar    1  UNL1        0.0509
     26 C         138.0308  143.4765  164.0752 C.ar    1  UNL1        0.0147
     27 C         138.7732  144.7724  163.9348 C.ar    1  UNL1        0.0029
     28 C         139.4454  145.1150  162.6383 C.ar    1  UNL1        0.0210
     29 C         139.3751  144.1619  161.4822 C.ar    1  UNL1        0.1041
     30 C         138.6327  142.8661  161.6226 C.ar    1  UNL1        0.0355
     31 N         140.0472  144.5045  160.1858 N.ar    1  UNL1       -0.1478
     32 N         139.5344  144.1798  158.8141 N.ar    1  UNL1       -0.1447
     33 C         140.5204  144.7066  157.8139 C.ar    1  UNL1        0.1446
     34 C         141.6426  145.3569  158.5675 C.ar    1  UNL1        0.1446
     35 N         141.3501  145.2320  160.0334 N.ar    1  UNL1       -0.1447
@<TRIPOS>BOND
     1     7     8   am
     2     8     9    2
     3     8     1    1
     4     1     2   ar
     5     2     3   ar
     6     3     4   ar
     7     4    12    1
     8    14    12    1
     9    14    15    1
    10    15    16    1
    11    16    17    1
    12    17    18    1
    13    18    19    1
    14    19    20    1
    15     4     5   ar
    16     5     6   ar
    17     6    23    1
    18    23    25    1
    19    25    26   ar
    20    26    27   ar
    21    27    28   ar
    22    28    29   ar
    23    29    31    1
    24    31    32   ar
    25    32    33   ar
    26    33    34   ar
    27    34    35   ar
    28    29    30   ar
    29     6     1   ar
    30    30    25   ar
    31    19    14    1
    32    35    31   ar
    33     7    10    1
    34     7    11    1
    35    12    13    1
    36    20    21    1
    37    20    22    1
    38    23    24    1
@<TRIPOS>MOLECULE
*****
 35 38 0 0 0
SMALL
GASTEIGER

@<TRIPOS>ATOM
      1 C         138.3662  138.8151  163.0558 C.ar    1  UNL1        0.0849
      2 C         138.8068  137.6195  163.8472 C.ar    1  UNL1        0.0102
      3 C         138.8749  137.6942  165.3438 C.ar    1  UNL1        0.0343
      4 C         138.5024  138.9645  166.0490 C.ar    1  UNL1        0.1299
      5 N         138.0617  140.1602  165.2576 N.ar    1  UNL1       -0.2160
      6 C         137.9937  140.0854  163.7610 C.ar    1  UNL1        0.1379
      7 N         139.2796  137.8930  160.8052 N.am    1  UNL1       -0.3252
      8 C         138.2981  138.7403  161.5592 C.2     1  UNL1        0.2455
      9 O         137.2486  139.5130  160.8167 O.2     1  UNL1       -0.2703
     10 H         139.2349  137.8439  159.8229 H       1  UNL1        0.1453
     11 H         139.9685  137.3858  161.2925 H       1  UNL1        0.1453
     12 N         138.5704  139.0393  167.5456 N.pl3   1  UNL1       -0.3184
     13 H         138.0535  138.4059  168.0941 H       1  UNL1        0.1482
     14 C         139.4261  140.0790  168.2064 C.3     1  UNL1        0.0844
     15 C         140.5540  140.7144  167.4487 C.3     1  UNL1        0.0209
     16 C         141.4097  141.7541  168.1096 C.3     1  UNL1        0.0018
     17 C         141.1376  142.1584  169.5282 C.3     1  UNL1        0.0015
     18 C         140.0097  141.5230  170.2859 C.3     1  UNL1        0.0172
     19 C         139.1539  140.4833  169.6250 C.3     1  UNL1        0.0689
     20 N         138.0261  139.8479  170.3828 N.3     1  UNL1       -0.3209
     21 H         137.9864  140.2384  171.3242 H       1  UNL1        0.1189
     22 H         138.1786  138.8409  170.4385 H       1  UNL1        0.1189
     23 N         137.5530  141.2811  162.9696 N.pl3   1  UNL1       -0.2977
     24 H         136.6959  141.2625  162.4856 H       1  UNL1        0.1536
     25 C         138.4183  142.5052  162.9157 C.ar    1  UNL1        0.0509
     26 C         137.7899  143.8667  162.8756 C.ar    1  UNL1        0.0147
     27 C         138.6553  145.0908  162.8217 C.ar    1  UNL1        0.0029
     28 C         140.1489  144.9534  162.8079 C.ar    1  UNL1        0.0210
     29 C         140.7772  143.5919  162.8480 C.ar    1  UNL1        0.1041
     30 C         139.9120  142.3679  162.9019 C.ar    1  UNL1        0.0355
     31 N         142.2708  143.4545  162.8342 N.ar    1  UNL1       -0.1478
     32 N         143.2012  144.0455  161.8168 N.ar    1  UNL1       -0.1447
     33 C         144.6017  143.6583  162.1892 C.ar    1  UNL1        0.1446
     34 C         144.5369  142.8280  163.4368 C.ar    1  UNL1        0.1446
     35 N         143.0963  142.7021  163.8354 N.ar    1  UNL1       -0.1447
@<TRIPOS>BOND
     1     7     8   am
     2     8     9    2
     3     8     1    1
     4     1     2   ar
     5     2     3   ar
     6     3     4   ar
     7     4    12    1
     8    14    12    1
     9    14    15    1
    10    15    16    1
    11    16    17    1
    12    17    18    1
    13    18    19    1
    14    19    20    1
    15     4     5   ar
    16     5     6   ar
    17     6    23    1
    18    23    25    1
    19    25    26   ar
    20    26    27   ar
    21    27    28   ar
    22    28    29   ar
    23    29    31    1
    24    31    32   ar
    25    32    33   ar
    26    33    34   ar
    27    34    35   ar
    28    29    30   ar
    29     6     1   ar
    30    30    25   ar
    31    19    14    1
    32    35    31   ar
    33     7    10    1
    34     7    11    1
    35    12    13    1
    36    20    21    1
    37    20    22    1
    38    23    24    1
@<TRIPOS>MOLECULE
*****
 35 38 0 0 0
SMALL
GASTEIGER

@<TRIPOS>ATOM
      1 C         139.6743  138.2555  164.7394 C.ar    1  UNL1        0.0849
      2 C         138.3623  138.2057  165.4647 C.ar    1  UNL1        0.0102
      3 C         138.2392  138.8047  166.8344 C.ar    1  UNL1        0.0343
      4 C         139.4282  139.4536  167.4788 C.ar    1  UNL1        0.1299
      5 N         140.7402  139.5034  166.7535 N.ar    1  UNL1       -0.2160
      6 C         140.8633  138.9044  165.3839 C.ar    1  UNL1        0.1379
      7 N         138.6397  137.7169  162.4180 N.am    1  UNL1       -0.3252
      8 C         139.7974  137.6565  163.3698 C.2     1  UNL1        0.2455
      9 O         141.0782  136.9970  162.9519 O.2     1  UNL1       -0.2703
     10 H         138.7205  137.3237  161.5190 H       1  UNL1        0.1453
     11 H         137.7990  138.1497  162.6922 H       1  UNL1        0.1453
     12 N         139.3051  140.0526  168.8485 N.pl3   1  UNL1       -0.3184
     13 H         138.5559  139.7950  169.4329 H       1  UNL1        0.1482
     14 C         140.3236  141.0441  169.3277 C.3     1  UNL1        0.0844
     15 C         140.1170  142.5095  169.0826 C.3     1  UNL1        0.0209
     16 C         141.1354  143.5009  169.5618 C.3     1  UNL1        0.0018
     17 C         142.3605  143.0271  170.2862 C.3     1  UNL1        0.0015
     18 C         142.5671  141.5618  170.5314 C.3     1  UNL1        0.0172
     19 C         141.5486  140.5702  170.0521 C.3     1  UNL1        0.0689
     20 N         141.7552  139.1049  170.2973 N.3     1  UNL1       -0.3209
     21 H         142.6324  138.9644  170.7984 H       1  UNL1        0.1189
     22 H         141.7908  138.6126  169.4047 H       1  UNL1        0.1189
     23 N         142.1754  138.9542  164.6586 N.pl3   1  UNL1       -0.2977
     24 H         142.6323  138.1185  164.4096 H       1  UNL1        0.1536
     25 C         142.7913  140.2774  164.3127 C.ar    1  UNL1        0.0509
     26 C         144.2434  140.5256  164.5953 C.ar    1  UNL1        0.0147
     27 C         144.8593  141.8489  164.2494 C.ar    1  UNL1        0.0029
     28 C         144.0232  142.9239  163.6208 C.ar    1  UNL1        0.0210
     29 C         142.5711  142.6758  163.3382 C.ar    1  UNL1        0.1041
     30 C         141.9552  141.3526  163.6841 C.ar    1  UNL1        0.0355
     31 N         141.7349  143.7508  162.7096 N.ar    1  UNL1       -0.1478
     32 N         140.8130  144.6870  163.4332 N.ar    1  UNL1       -0.1447
     33 C         140.1822  145.5932  162.4179 C.ar    1  UNL1        0.1446
     34 C         140.7143  145.2171  161.0668 C.ar    1  UNL1        0.1446
     35 N         141.6739  144.0784  161.2471 N.ar    1  UNL1       -0.1447
@<TRIPOS>BOND
     1     7     8   am
     2     8     9    2
     3     8     1    1
     4     1     2   ar
     5     2     3   ar
     6     3     4   ar
     7     4    12    1
     8    14    12    1
     9    14    15    1
    10    15    16    1
    11    16    17    1
    12    17    18    1
    13    18    19    1
    14    19    20    1
    15     4     5   ar
    16     5     6   ar
    17     6    23    1
    18    23    25    1
    19    25    26   ar
    20    26    27   ar
    21    27    28   ar
    22    28    29   ar
    23    29    31    1
    24    31    32   ar
    25    32    33   ar
    26    33    34   ar
    27    34    35   ar
    28    29    30   ar
    29     6     1   ar
    30    30    25   ar
    31    19    14    1
    32    35    31   ar
    33     7    10    1
    34     7    11    1
    35    12    13    1
    36    20    21    1
    37    20    22    1
    38    23    24    1
@<TRIPOS>MOLECULE
*****
 35 38 0 0 0
SMALL
GASTEIGER

@<TRIPOS>ATOM
      1 C         142.1288  141.8204  168.7362 C.ar    1  UNL1        0.0849
      2 C         140.9990  140.9921  169.2722 C.ar    1  UNL1        0.0102
      3 C         140.1986  140.1259  168.3454 C.ar    1  UNL1        0.0343
      4 C         140.5280  140.0880  166.8825 C.ar    1  UNL1        0.1299
      5 N         141.6578  140.9164  166.3465 N.ar    1  UNL1       -0.2160
      6 C         142.4582  141.7826  167.2733 C.ar    1  UNL1        0.1379
      7 N         142.2334  143.5271  170.6923 N.am    1  UNL1       -0.3252
      8 C         142.9292  142.6867  169.6630 C.2     1  UNL1        0.2455
      9 O         144.4255  142.7124  169.5606 O.2     1  UNL1       -0.2703
     10 H         142.7587  144.0957  171.3006 H       1  UNL1        0.1453
     11 H         141.2513  143.5102  170.7595 H       1  UNL1        0.1453
     12 N         139.7276  139.2218  165.9557 N.pl3   1  UNL1       -0.3184
     13 H         139.7000  138.2474  166.0936 H       1  UNL1        0.1482
     14 C         138.9693  139.8401  164.8188 C.3     1  UNL1        0.0844
     15 C         138.4308  141.2343  164.9467 C.3     1  UNL1        0.0209
     16 C         137.6725  141.8527  163.8098 C.3     1  UNL1        0.0018
     17 C         137.4527  141.0769  162.5450 C.3     1  UNL1        0.0015
     18 C         137.9912  139.6828  162.4170 C.3     1  UNL1        0.0172
     19 C         138.7496  139.0644  163.5539 C.3     1  UNL1        0.0689
     20 N         139.2881  137.6703  163.4260 N.3     1  UNL1       -0.3209
     21 H         139.0481  137.2960  162.5079 H       1  UNL1        0.1189
     22 H         138.8799  137.0802  164.1510 H       1  UNL1        0.1189
     23 N         143.5880  142.6110  166.7372 N.pl3   1  UNL1       -0.2977
     24 H         144.2201  143.0415  167.3572 H       1  UNL1        0.1536
     25 C         143.7547  142.7834  165.2566 C.ar    1  UNL1        0.0509
     26 C         144.9300  142.1671  164.5573 C.ar    1  UNL1        0.0147
     27 C         145.0967  142.3396  163.0766 C.ar    1  UNL1        0.0029
     28 C         144.0882  143.1284  162.2952 C.ar    1  UNL1        0.0210
     29 C         142.9129  143.7447  162.9944 C.ar    1  UNL1        0.1041
     30 C         142.7462  143.5722  164.4750 C.ar    1  UNL1        0.0355
     31 N         141.9044  144.5334  162.2130 N.ar    1  UNL1       -0.1478
     32 N         141.8497  144.6603  160.7194 N.ar    1  UNL1       -0.1447
     33 C         140.6850  145.5391  160.3712 C.ar    1  UNL1        0.1446
     34 C         140.0198  145.9553  161.6497 C.ar    1  UNL1        0.1446
     35 N         140.7735  145.3338  162.7879 N.ar    1  UNL1       -0.1447
@<TRIPOS>BOND
     1     7     8   am
     2     8     9    2
     3     8     1    1
     4     1     2   ar
     5     2     3   ar
     6     3     4   ar
     7     4    12    1
     8    14    12    1
     9    14    15    1
    10    15    16    1
    11    16    17    1
    12    17    18    1
    13    18    19    1
    14    19    20    1
    15     4     5   ar
    16     5     6   ar
    17     6    23    1
    18    23    25    1
    19    25    26   ar
    20    26    27   ar
    21    27    28   ar
    22    28    29   ar
    23    29    31    1
    24    31    32   ar
    25    32    33   ar
    26    33    34   ar
    27    34    35   ar
    28    29    30   ar
    29     6     1   ar
    30    30    25   ar
    31    19    14    1
    32    35    31   ar
    33     7    10    1
    34     7    11    1
    35    12    13    1
    36    20    21    1
    37    20    22    1
    38    23    24    1
@<TRIPOS>MOLECULE
*****
 35 38 0 0 0
SMALL
GASTEIGER

@<TRIPOS>ATOM
      1 C         140.0792  140.2764  167.1515 C.ar    1  UNL1        0.0849
      2 C         139.0001  139.2658  166.8982 C.ar    1  UNL1        0.0102
      3 C         138.0251  139.4745  165.7775 C.ar    1  UNL1        0.0343
      4 C         138.1292  140.6938  164.9102 C.ar    1  UNL1        0.1299
      5 N         139.2082  141.7044  165.1634 N.ar    1  UNL1       -0.2160
      6 C         140.1832  141.4958  166.2841 C.ar    1  UNL1        0.1379
      7 N         140.5572  139.7137  169.6424 N.am    1  UNL1       -0.3252
      8 C         141.0541  140.0678  168.2721 C.2     1  UNL1        0.2455
      9 O         142.5260  140.2131  168.0225 O.2     1  UNL1       -0.2703
     10 H         141.1972  139.5768  170.3779 H       1  UNL1        0.1453
     11 H         139.5912  139.6183  169.8063 H       1  UNL1        0.1453
     12 N         137.1542  140.9024  163.7895 N.pl3   1  UNL1       -0.3184
     13 H         136.1926  140.9872  163.9830 H       1  UNL1        0.1482
     14 C         137.6442  140.9819  162.3741 C.3     1  UNL1        0.0844
     15 C         137.7106  139.7419  161.5326 C.3     1  UNL1        0.0209
     16 C         138.2007  139.8213  160.1172 C.3     1  UNL1        0.0018
     17 C         138.6244  141.1408  159.5431 C.3     1  UNL1        0.0015
     18 C         138.5580  142.3808  160.3845 C.3     1  UNL1        0.0172
     19 C         138.0679  142.3013  161.8000 C.3     1  UNL1        0.0689
     20 N         138.0015  143.5413  162.6414 N.3     1  UNL1       -0.3209
     21 H         138.3247  144.3402  162.0957 H       1  UNL1        0.1189
     22 H         138.5961  143.4275  163.4623 H       1  UNL1        0.1189
     23 N         141.2623  142.5065  166.5374 N.pl3   1  UNL1       -0.2977
     24 H         141.3959  142.8674  167.4435 H       1  UNL1        0.1536
     25 C         142.1378  142.9673  165.4100 C.ar    1  UNL1        0.0509
     26 C         143.6299  142.8753  165.5332 C.ar    1  UNL1        0.0147
     27 C         144.5054  143.3362  164.4057 C.ar    1  UNL1        0.0029
     28 C         143.8889  143.8891  163.1551 C.ar    1  UNL1        0.0210
     29 C         142.3968  143.9811  163.0319 C.ar    1  UNL1        0.1041
     30 C         141.5213  143.5203  164.1593 C.ar    1  UNL1        0.0355
     31 N         141.7802  144.5340  161.7813 N.ar    1  UNL1       -0.1478
     32 N         142.3254  144.3899  160.3913 N.ar    1  UNL1       -0.1447
     33 C         141.3923  145.0950  159.4520 C.ar    1  UNL1        0.1446
     34 C         140.2704  145.6748  160.2615 C.ar    1  UNL1        0.1446
     35 N         140.5102  145.3282  161.7010 N.ar    1  UNL1       -0.1447
@<TRIPOS>BOND
     1     7     8   am
     2     8     9    2
     3     8     1    1
     4     1     2   ar
     5     2     3   ar
     6     3     4   ar
     7     4    12    1
     8    14    12    1
     9    14    15    1
    10    15    16    1
    11    16    17    1
    12    17    18    1
    13    18    19    1
    14    19    20    1
    15     4     5   ar
    16     5     6   ar
    17     6    23    1
    18    23    25    1
    19    25    26   ar
    20    26    27   ar
    21    27    28   ar
    22    28    29   ar
    23    29    31    1
    24    31    32   ar
    25    32    33   ar
    26    33    34   ar
    27    34    35   ar
    28    29    30   ar
    29     6     1   ar
    30    30    25   ar
    31    19    14    1
    32    35    31   ar
    33     7    10    1
    34     7    11    1
    35    12    13    1
    36    20    21    1
    37    20    22    1
    38    23    24    1
@<TRIPOS>MOLECULE
*****
 35 38 0 0 0
SMALL
GASTEIGER

@<TRIPOS>ATOM
      1 C         138.1794  140.2986  164.4842 C.ar    1  UNL1        0.0849
      2 C         138.2413  138.9396  165.1158 C.ar    1  UNL1        0.0102
      3 C         138.8235  138.7764  166.4886 C.ar    1  UNL1        0.0343
      4 C         139.3437  139.9722  167.2297 C.ar    1  UNL1        0.1299
      5 N         139.2818  141.3313  166.5981 N.ar    1  UNL1       -0.2160
      6 C         138.6996  141.4945  165.2253 C.ar    1  UNL1        0.1379
      7 N         137.6954  139.3430  162.1173 N.am    1  UNL1       -0.3252
      8 C         137.5973  140.4619  163.1114 C.2     1  UNL1        0.2455
      9 O         136.9171  141.7440  162.7328 O.2     1  UNL1       -0.2703
     10 H         137.3134  139.4501  161.2163 H       1  UNL1        0.1453
     11 H         138.1419  138.5014  162.3657 H       1  UNL1        0.1453
     12 N         139.9258  139.8090  168.6025 N.pl3   1  UNL1       -0.3184
     13 H         139.6714  139.0358  169.1563 H       1  UNL1        0.1482
     14 C         140.8954  140.8238  169.1315 C.3     1  UNL1        0.0844
     15 C         140.3973  142.1466  169.6338 C.3     1  UNL1        0.0209
     16 C         141.3669  143.1614  170.1627 C.3     1  UNL1        0.0018
     17 C         142.8348  142.8535  170.1895 C.3     1  UNL1        0.0015
     18 C         143.3329  141.5308  169.6873 C.3     1  UNL1        0.0172
     19 C         142.3633  140.5159  169.1583 C.3     1  UNL1        0.0689
     20 N         142.8614  139.1932  168.6560 N.3     1  UNL1       -0.3209
     21 H         143.8766  139.1551  168.7479 H       1  UNL1        0.1189
     22 H         142.6045  139.0833  167.6751 H       1  UNL1        0.1189
     23 N         138.6377  142.8537  164.5936 N.pl3   1  UNL1       -0.2977
     24 H         137.7802  143.3346  164.5435 H       1  UNL1        0.1536
     25 C         139.8824  143.4800  164.0384 C.ar    1  UNL1        0.0509
     26 C         139.8362  144.8703  163.4770 C.ar    1  UNL1        0.0147
     27 C         141.0810  145.4966  162.9218 C.ar    1  UNL1        0.0029
     28 C         142.3719  144.7328  162.9279 C.ar    1  UNL1        0.0210
     29 C         142.4181  143.3426  163.4893 C.ar    1  UNL1        0.1041
     30 C         141.1734  142.7162  164.0445 C.ar    1  UNL1        0.0355
     31 N         143.7090  142.5787  163.4954 N.ar    1  UNL1       -0.1478
     32 N         144.8498  142.7677  162.5400 N.ar    1  UNL1       -0.1447
     33 C         145.9316  141.7976  162.9121 C.ar    1  UNL1        0.1446
     34 C         145.4594  141.0089  164.0975 C.ar    1  UNL1        0.1446
     35 N         144.0857  141.4917  164.4579 N.ar    1  UNL1       -0.1447
@<TRIPOS>BOND
     1     7     8   am
     2     8     9    2
     3     8     1    1
     4     1     2   ar
     5     2     3   ar
     6     3     4   ar
     7     4    12    1
     8    14    12    1
     9    14    15    1
    10    15    16    1
    11    16    17    1
    12    17    18    1
    13    18    19    1
    14    19    20    1
    15     4     5   ar
    16     5     6   ar
    17     6    23    1
    18    23    25    1
    19    25    26   ar
    20    26    27   ar
    21    27    28   ar
    22    28    29   ar
    23    29    31    1
    24    31    32   ar
    25    32    33   ar
    26    33    34   ar
    27    34    35   ar
    28    29    30   ar
    29     6     1   ar
    30    30    25   ar
    31    19    14    1
    32    35    31   ar
    33     7    10    1
    34     7    11    1
    35    12    13    1
    36    20    21    1
    37    20    22    1
    38    23    24    1
@<TRIPOS>MOLECULE
*****
 35 38 0 0 0
SMALL
GASTEIGER

@<TRIPOS>ATOM
      1 C         144.1264  142.6629  164.8233 C.ar    1  UNL1        0.0849
      2 C         145.1316  141.6955  164.2723 C.ar    1  UNL1        0.0102
      3 C         144.7201  140.2902  163.9470 C.ar    1  UNL1        0.0343
      4 C         143.3033  139.8524  164.1726 C.ar    1  UNL1        0.1299
      5 N         142.2981  140.8197  164.7235 N.ar    1  UNL1       -0.2160
      6 C         142.7096  142.2250  165.0489 C.ar    1  UNL1        0.1379
      7 N         144.0274  145.2099  164.3207 N.am    1  UNL1       -0.3252
      8 C         144.5380  144.0681  165.1487 C.2     1  UNL1        0.2455
      9 O         145.4601  144.3316  166.3021 O.2     1  UNL1       -0.2703
     10 H         144.2975  146.1322  164.5343 H       1  UNL1        0.1453
     11 H         143.4222  145.0370  163.5637 H       1  UNL1        0.1453
     12 N         142.8917  138.4471  163.8472 N.pl3   1  UNL1       -0.3184
     13 H         143.5643  137.7283  163.8316 H       1  UNL1        0.1482
     14 C         141.4555  138.1370  163.5455 C.3     1  UNL1        0.0844
     15 C         140.5194  137.7638  164.6566 C.3     1  UNL1        0.0209
     16 C         139.0832  137.4538  164.3549 C.3     1  UNL1        0.0018
     17 C         138.5830  137.5168  162.9421 C.3     1  UNL1        0.0015
     18 C         139.5191  137.8899  161.8310 C.3     1  UNL1        0.0172
     19 C         140.9554  138.2001  162.1327 C.3     1  UNL1        0.0689
     20 N         141.8915  138.5732  161.0217 N.3     1  UNL1       -0.3209
     21 H         141.3869  138.5663  160.1352 H       1  UNL1        0.1189
     22 H         142.6574  137.9007  160.9821 H       1  UNL1        0.1189
     23 N         141.7043  143.1924  165.5999 N.pl3   1  UNL1       -0.2977
     24 H         141.7953  143.5250  166.5221 H       1  UNL1        0.1536
     25 C         140.5604  143.6530  164.7460 C.ar    1  UNL1        0.0509
     26 C         139.2322  143.9587  165.3726 C.ar    1  UNL1        0.0147
     27 C         138.0883  144.4193  164.5185 C.ar    1  UNL1        0.0029
     28 C         138.2725  144.5741  163.0380 C.ar    1  UNL1        0.0210
     29 C         139.6006  144.2684  162.4114 C.ar    1  UNL1        0.1041
     30 C         140.7446  143.8079  163.2654 C.ar    1  UNL1        0.0355
     31 N         139.7849  144.4233  160.9309 N.ar    1  UNL1       -0.1478
     32 N         139.2750  143.4865  159.8762 N.ar    1  UNL1       -0.1447
     33 C         139.6863  144.0264  158.5386 C.ar    1  UNL1        0.1446
     34 C         140.4504  145.2969  158.7665 C.ar    1  UNL1        0.1446
     35 N         140.5113  145.5422  160.2450 N.ar    1  UNL1       -0.1447
@<TRIPOS>BOND
     1     7     8   am
     2     8     9    2
     3     8     1    1
     4     1     2   ar
     5     2     3   ar
     6     3     4   ar
     7     4    12    1
     8    14    12    1
     9    14    15    1
    10    15    16    1
    11    16    17    1
    12    17    18    1
    13    18    19    1
    14    19    20    1
    15     4     5   ar
    16     5     6   ar
    17     6    23    1
    18    23    25    1
    19    25    26   ar
    20    26    27   ar
    21    27    28   ar
    22    28    29   ar
    23    29    31    1
    24    31    32   ar
    25    32    33   ar
    26    33    34   ar
    27    34    35   ar
    28    29    30   ar
    29     6     1   ar
    30    30    25   ar
    31    19    14    1
    32    35    31   ar
    33     7    10    1
    34     7    11    1
    35    12    13    1
    36    20    21    1
    37    20    22    1
    38    23    24    1
@<TRIPOS>MOLECULE
*****
 35 38 0 0 0
SMALL
GASTEIGER

@<TRIPOS>ATOM
      1 C         141.1654  141.2466  169.2365 C.ar    1  UNL1        0.0849
      2 C         142.4565  141.7426  169.8170 C.ar    1  UNL1        0.0102
      3 C         143.4871  142.3705  168.9262 C.ar    1  UNL1        0.0343
      4 C         143.2267  142.5024  167.4549 C.ar    1  UNL1        0.1299
      5 N         141.9357  142.0063  166.8744 N.ar    1  UNL1       -0.2160
      6 C         140.9050  141.3784  167.7652 C.ar    1  UNL1        0.1379
      7 N         140.4570  139.3591  170.8752 N.am    1  UNL1       -0.3252
      8 C         140.1348  140.6187  170.1273 C.2     1  UNL1        0.2455
      9 O         138.7818  141.2504  170.2701 O.2     1  UNL1       -0.2703
     10 H         139.7806  138.9470  171.4598 H       1  UNL1        0.1453
     11 H         141.3450  138.9444  170.7815 H       1  UNL1        0.1453
     12 N         144.2574  143.1302  166.5641 N.pl3   1  UNL1       -0.3184
     13 H         145.1006  143.4648  166.9466 H       1  UNL1        0.1482
     14 C         144.0033  143.2484  165.0906 C.3     1  UNL1        0.0844
     15 C         143.8080  144.5997  164.4691 C.3     1  UNL1        0.0209
     16 C         143.5540  144.7178  162.9956 C.3     1  UNL1        0.0018
     17 C         143.4952  143.4848  162.1433 C.3     1  UNL1        0.0015
     18 C         143.6906  142.1337  162.7647 C.3     1  UNL1        0.0172
     19 C         143.9446  142.0154  164.2383 C.3     1  UNL1        0.0689
     20 N         144.1399  140.6643  164.8597 N.3     1  UNL1       -0.3209
     21 H         144.0684  139.9454  164.1396 H       1  UNL1        0.1189
     22 H         143.4225  140.5087  165.5678 H       1  UNL1        0.1189
     23 N         139.6139  140.8823  167.1846 N.pl3   1  UNL1       -0.2977
     24 H         138.7598  141.2759  167.4759 H       1  UNL1        0.1536
     25 C         139.6242  139.7867  166.1602 C.ar    1  UNL1        0.0509
     26 C         138.6200  138.6753  166.2406 C.ar    1  UNL1        0.0147
     27 C         138.6303  137.5796  165.2162 C.ar    1  UNL1        0.0029
     28 C         139.6447  137.5954  164.1113 C.ar    1  UNL1        0.0210
     29 C         140.6489  138.7067  164.0309 C.ar    1  UNL1        0.1041
     30 C         140.6386  139.8024  165.0553 C.ar    1  UNL1        0.0355
     31 N         141.6633  138.7225  162.9261 N.ar    1  UNL1       -0.1478
     32 N         141.4191  139.1560  161.5111 N.ar    1  UNL1       -0.1447
     33 C         142.7049  139.0090  160.7527 C.ar    1  UNL1        0.1446
     34 C         143.7438  138.4845  161.6992 C.ar    1  UNL1        0.1446
     35 N         143.1001  138.3075  163.0423 N.ar    1  UNL1       -0.1447
@<TRIPOS>BOND
     1     7     8   am
     2     8     9    2
     3     8     1    1
     4     1     2   ar
     5     2     3   ar
     6     3     4   ar
     7     4    12    1
     8    14    12    1
     9    14    15    1
    10    15    16    1
    11    16    17    1
    12    17    18    1
    13    18    19    1
    14    19    20    1
    15     4     5   ar
    16     5     6   ar
    17     6    23    1
    18    23    25    1
    19    25    26   ar
    20    26    27   ar
    21    27    28   ar
    22    28    29   ar
    23    29    31    1
    24    31    32   ar
    25    32    33   ar
    26    33    34   ar
    27    34    35   ar
    28    29    30   ar
    29     6     1   ar
    30    30    25   ar
    31    19    14    1
    32    35    31   ar
    33     7    10    1
    34     7    11    1
    35    12    13    1
    36    20    21    1
    37    20    22    1
    38    23    24    1
