@<TRIPOS>MOLECULE
*****
 27 29 0 0 0
SMALL
GASTEIGER

@<TRIPOS>ATOM
      1 C         138.0399  144.0063  163.6481 C.3     1  UNL1        0.0644
      2 N         137.5850  144.8901  162.5249 N.3     1  UNL1       -0.3215
      3 H         137.9788  145.8233  162.6456 H       1  UNL1        0.1188
      4 H         136.5666  144.9477  162.5286 H       1  UNL1        0.1188
      5 C         137.5962  142.5744  163.7027 C.3     1  UNL1        0.1011
      6 C         138.5000  139.1988  161.7256 C.3     1  UNL1        0.1672
      7 C         138.8022  137.8995  162.4116 C.3     1  UNL1        0.0372
      8 C         138.7000  138.1219  163.8915 C.3     1  UNL1        0.0210
      9 C         138.8236  137.4563  165.2300 C.3     1  UNL1        0.0018
     10 C         138.5347  138.4817  166.2860 C.3     1  UNL1        0.0018
     11 C         138.2325  139.7810  165.6001 C.3     1  UNL1        0.0198
     12 C         138.3347  139.5586  164.1202 C.3     1  UNL1        0.0763
     13 N         138.2111  140.2242  162.7817 N.am    1  UNL1       -0.2701
     14 C         137.8602  141.6627  162.5413 C.2     1  UNL1        0.2276
     15 O         137.7732  142.1893  161.1394 O.2     1  UNL1       -0.2748
     16 N         138.4775  139.6649  158.7622 N.1     1  UNL1       -0.1942
     17 C         138.4888  139.4318  160.2439 C.1     1  UNL1        0.0925
     18 C         138.9386  144.5542  164.7169 C.3     1  UNL1        0.0447
     19 C         140.3917  144.1828  164.7381 C.ar    1  UNL1        0.0090
     20 C         141.3698  144.9314  163.8819 C.ar    1  UNL1        0.0300
     21 C         142.8229  144.5600  163.9031 C.ar    1  UNL1        0.1672
     22 F         143.8009  145.3086  163.0470 F       1  UNL1       -0.2018
     23 C         143.2980  143.4399  164.7805 C.ar    1  UNL1        0.1696
     24 F         144.7511  143.0684  164.8016 F       1  UNL1       -0.2017
     25 C         142.3199  142.6913  165.6366 C.ar    1  UNL1        0.0612
     26 C         140.8668  143.0627  165.6154 C.ar    1  UNL1        0.1386
     27 F         139.8888  142.3141  166.4715 F       1  UNL1       -0.2044
@<TRIPOS>BOND
     1    16    17    3
     2     6    17    1
     3     6     7    1
     4     8     7    1
     5     8     9    1
     6     9    10    1
     7    10    11    1
     8    12    11    1
     9    12    13    1
    10    13    14   am
    11    14    15    2
    12    14     5    1
    13     5     1    1
    14     1     2    1
    15     1    18    1
    16    18    19    1
    17    19    20   ar
    18    20    21   ar
    19    21    22    1
    20    21    23   ar
    21    23    24    1
    22    23    25   ar
    23    25    26   ar
    24    26    27    1
    25    13     6    1
    26    26    19   ar
    27    12     8    1
    28     2     3    1
    29     2     4    1
@<TRIPOS>MOLECULE
*****
 27 29 0 0 0
SMALL
GASTEIGER

@<TRIPOS>ATOM
      1 C         138.3542  138.4748  166.2695 C.3     1  UNL1        0.0644
      2 N         137.2686  138.0745  167.2241 N.3     1  UNL1       -0.3215
      3 H         136.9308  137.1427  166.9833 H       1  UNL1        0.1188
      4 H         136.4992  138.7414  167.1631 H       1  UNL1        0.1188
      5 C         139.0209  139.8112  166.4097 C.3     1  UNL1        0.1011
      6 C         141.6084  141.4846  168.9836 C.3     1  UNL1        0.1672
      7 C         142.8297  142.2391  168.5486 C.3     1  UNL1        0.0372
      8 C         142.8694  142.2318  167.0491 C.3     1  UNL1        0.0210
      9 C         143.6488  142.6937  165.8536 C.3     1  UNL1        0.0018
     10 C         142.9337  142.2201  164.6230 C.3     1  UNL1        0.0018
     11 C         141.7124  141.4656  165.0580 C.3     1  UNL1        0.0198
     12 C         141.6727  141.4728  166.5574 C.3     1  UNL1        0.0763
     13 N         140.8933  141.0110  167.7529 N.am    1  UNL1       -0.2701
     14 C         139.6221  140.2153  167.7231 C.2     1  UNL1        0.2276
     15 O         138.9521  139.8238  169.0068 O.2     1  UNL1       -0.2748
     16 N         140.7472  141.0067  171.8173 N.1     1  UNL1       -0.1942
     17 C         141.1778  141.2456  170.4004 C.1     1  UNL1        0.0925
     18 C         138.7730  137.5388  165.1747 C.3     1  UNL1        0.0447
     19 C         140.0641  137.7670  164.4459 C.ar    1  UNL1        0.0090
     20 C         141.3317  137.9878  165.2171 C.ar    1  UNL1        0.0300
     21 C         142.6228  138.2160  164.4883 C.ar    1  UNL1        0.1672
     22 F         143.8903  138.4368  165.2593 F       1  UNL1       -0.2018
     23 C         142.6462  138.2234  162.9885 C.ar    1  UNL1        0.1696
     24 F         143.9373  138.4516  162.2597 F       1  UNL1       -0.2017
     25 C         141.3787  138.0026  162.2174 C.ar    1  UNL1        0.0612
     26 C         140.0876  137.7745  162.9462 C.ar    1  UNL1        0.1386
     27 F         138.8201  137.5537  162.1751 F       1  UNL1       -0.2044
@<TRIPOS>BOND
     1    16    17    3
     2     6    17    1
     3     6     7    1
     4     8     7    1
     5     8     9    1
     6     9    10    1
     7    10    11    1
     8    12    11    1
     9    12    13    1
    10    13    14   am
    11    14    15    2
    12    14     5    1
    13     5     1    1
    14     1     2    1
    15     1    18    1
    16    18    19    1
    17    19    20   ar
    18    20    21   ar
    19    21    22    1
    20    21    23   ar
    21    23    24    1
    22    23    25   ar
    23    25    26   ar
    24    26    27    1
    25    13     6    1
    26    26    19   ar
    27    12     8    1
    28     2     3    1
    29     2     4    1
@<TRIPOS>MOLECULE
*****
 27 29 0 0 0
SMALL
GASTEIGER

@<TRIPOS>ATOM
      1 C         138.3306  138.3357  166.3692 C.3     1  UNL1        0.0644
      2 N         137.1394  138.1266  167.2565 N.3     1  UNL1       -0.3215
      3 H         136.7558  137.1951  167.0967 H       1  UNL1        0.1188
      4 H         136.4298  138.8277  167.0437 H       1  UNL1        0.1188
      5 C         139.0797  139.6345  166.4130 C.3     1  UNL1        0.1011
      6 C         141.6250  141.4757  168.9133 C.3     1  UNL1        0.1672
      7 C         142.8491  142.2080  168.4490 C.3     1  UNL1        0.0372
      8 C         142.9093  142.1087  166.9535 C.3     1  UNL1        0.0210
      9 C         143.7030  142.4999  165.7423 C.3     1  UNL1        0.0018
     10 C         143.0067  141.9480  164.5338 C.3     1  UNL1        0.0018
     11 C         141.7827  141.2157  164.9980 C.3     1  UNL1        0.0198
     12 C         141.7225  141.3150  166.4935 C.3     1  UNL1        0.0763
     13 N         140.9287  140.9238  167.7047 N.am    1  UNL1       -0.2701
     14 C         139.6613  140.1216  167.7069 C.2     1  UNL1        0.2276
     15 O         138.9754  139.8065  169.0033 O.2     1  UNL1       -0.2748
     16 N         140.7272  141.1688  171.7592 N.1     1  UNL1       -0.1942
     17 C         141.1761  141.3223  170.3362 C.1     1  UNL1        0.0925
     18 C         138.7727  137.2459  165.4380 C.3     1  UNL1        0.0447
     19 C         139.4245  137.5935  164.1325 C.ar    1  UNL1        0.0090
     20 C         138.5840  138.0113  162.9624 C.ar    1  UNL1        0.0300
     21 C         139.2357  138.3589  161.6569 C.ar    1  UNL1        0.1672
     22 F         138.3953  138.7767  160.4868 F       1  UNL1       -0.2018
     23 C         140.7280  138.2887  161.5215 C.ar    1  UNL1        0.1696
     24 F         141.3798  138.6363  160.2159 F       1  UNL1       -0.2017
     25 C         141.5684  137.8708  162.6915 C.ar    1  UNL1        0.0612
     26 C         140.9167  137.5233  163.9970 C.ar    1  UNL1        0.1386
     27 F         141.7571  137.1054  165.1671 F       1  UNL1       -0.2044
@<TRIPOS>BOND
     1    16    17    3
     2     6    17    1
     3     6     7    1
     4     8     7    1
     5     8     9    1
     6     9    10    1
     7    10    11    1
     8    12    11    1
     9    12    13    1
    10    13    14   am
    11    14    15    2
    12    14     5    1
    13     5     1    1
    14     1     2    1
    15     1    18    1
    16    18    19    1
    17    19    20   ar
    18    20    21   ar
    19    21    22    1
    20    21    23   ar
    21    23    24    1
    22    23    25   ar
    23    25    26   ar
    24    26    27    1
    25    13     6    1
    26    26    19   ar
    27    12     8    1
    28     2     3    1
    29     2     4    1
@<TRIPOS>MOLECULE
*****
 27 29 0 0 0
SMALL
GASTEIGER

@<TRIPOS>ATOM
      1 C         137.9403  141.2926  164.4123 C.3     1  UNL1        0.0644
      2 N         136.9297  141.4033  163.3095 N.3     1  UNL1       -0.3215
      3 H         136.5439  140.4809  163.1079 H       1  UNL1        0.1188
      4 H         137.3793  141.7741  162.4723 H       1  UNL1        0.1188
      5 C         138.6574  142.5172  164.8983 C.3     1  UNL1        0.1011
      6 C         140.9550  145.1271  162.8908 C.3     1  UNL1        0.1672
      7 C         142.4367  145.2438  163.0932 C.3     1  UNL1        0.0372
      8 C         142.8426  144.2438  164.1350 C.3     1  UNL1        0.0210
      9 C         144.0091  143.6979  164.9038 C.3     1  UNL1        0.0018
     10 C         143.4992  142.6257  165.8205 C.3     1  UNL1        0.0018
     11 C         142.0174  142.5089  165.6182 C.3     1  UNL1        0.0198
     12 C         141.6116  143.5089  164.5764 C.3     1  UNL1        0.0763
     13 N         140.4451  144.0548  163.8076 N.am    1  UNL1       -0.2701
     14 C         139.0190  143.6071  163.9333 C.2     1  UNL1        0.2276
     15 O         137.9545  144.2493  163.0940 O.2     1  UNL1       -0.2748
     16 N         139.3018  146.7525  160.9871 N.1     1  UNL1       -0.1942
     17 C         140.1284  145.9398  161.9390 C.1     1  UNL1        0.0925
     18 C         138.2339  139.9572  165.0293 C.3     1  UNL1        0.0447
     19 C         139.6377  139.6059  165.4245 C.ar    1  UNL1        0.0090
     20 C         140.6080  139.1171  164.3902 C.ar    1  UNL1        0.0300
     21 C         142.0117  138.7659  164.7853 C.ar    1  UNL1        0.1672
     22 F         142.9820  138.2771  163.7511 F       1  UNL1       -0.2018
     23 C         142.4451  138.9034  166.2148 C.ar    1  UNL1        0.1696
     24 F         143.8488  138.5522  166.6100 F       1  UNL1       -0.2017
     25 C         141.4748  139.3922  167.2490 C.ar    1  UNL1        0.0612
     26 C         140.0711  139.7434  166.8538 C.ar    1  UNL1        0.1386
     27 F         139.1008  140.2322  167.8880 F       1  UNL1       -0.2044
@<TRIPOS>BOND
     1    16    17    3
     2     6    17    1
     3     6     7    1
     4     8     7    1
     5     8     9    1
     6     9    10    1
     7    10    11    1
     8    12    11    1
     9    12    13    1
    10    13    14   am
    11    14    15    2
    12    14     5    1
    13     5     1    1
    14     1     2    1
    15     1    18    1
    16    18    19    1
    17    19    20   ar
    18    20    21   ar
    19    21    22    1
    20    21    23   ar
    21    23    24    1
    22    23    25   ar
    23    25    26   ar
    24    26    27    1
    25    13     6    1
    26    26    19   ar
    27    12     8    1
    28     2     3    1
    29     2     4    1
@<TRIPOS>MOLECULE
*****
 27 29 0 0 0
SMALL
GASTEIGER

@<TRIPOS>ATOM
      1 C         139.1845  137.9719  164.1663 C.3     1  UNL1        0.0644
      2 N         138.7454  137.4008  162.8507 N.3     1  UNL1       -0.3215
      3 H         139.4311  136.7165  162.5312 H       1  UNL1        0.1188
      4 H         138.6676  138.1505  162.1635 H       1  UNL1        0.1188
      5 C         138.3433  139.0069  164.8528 C.3     1  UNL1        0.1011
      6 C         139.9438  141.0301  167.9295 C.3     1  UNL1        0.1672
      7 C         140.8821  142.1871  167.7541 C.3     1  UNL1        0.0372
      8 C         141.0773  142.4068  166.2831 C.3     1  UNL1        0.0210
      9 C         141.7779  143.2576  165.2657 C.3     1  UNL1        0.0018
     10 C         141.3932  142.7621  163.9031 C.3     1  UNL1        0.0018
     11 C         140.4549  141.6050  164.0785 C.3     1  UNL1        0.0198
     12 C         140.2597  141.3854  165.5494 C.3     1  UNL1        0.0763
     13 N         139.5591  140.5346  166.5669 N.am    1  UNL1       -0.2701
     14 C         138.6359  139.3893  166.2734 C.2     1  UNL1        0.2276
     15 O         138.0052  138.6265  167.4006 O.2     1  UNL1       -0.2748
     16 N         139.0019  139.9045  170.5459 N.1     1  UNL1       -0.1942
     17 C         139.4729  140.4673  169.2377 C.1     1  UNL1        0.0925
     18 C         140.4648  137.5081  164.7955 C.3     1  UNL1        0.0447
     19 C         141.7538  138.2044  164.4738 C.ar    1  UNL1        0.0090
     20 C         142.2369  138.2703  163.0552 C.ar    1  UNL1        0.0300
     21 C         143.5260  138.9666  162.7335 C.ar    1  UNL1        0.1672
     22 F         144.0091  139.0325  161.3150 F       1  UNL1       -0.2018
     23 C         144.3319  139.5970  163.8304 C.ar    1  UNL1        0.1696
     24 F         145.6210  140.2933  163.5087 F       1  UNL1       -0.2017
     25 C         143.8488  139.5311  165.2489 C.ar    1  UNL1        0.0612
     26 C         142.5598  138.8348  165.5706 C.ar    1  UNL1        0.1386
     27 F         142.0766  138.7689  166.9891 F       1  UNL1       -0.2044
@<TRIPOS>BOND
     1    16    17    3
     2     6    17    1
     3     6     7    1
     4     8     7    1
     5     8     9    1
     6     9    10    1
     7    10    11    1
     8    12    11    1
     9    12    13    1
    10    13    14   am
    11    14    15    2
    12    14     5    1
    13     5     1    1
    14     1     2    1
    15     1    18    1
    16    18    19    1
    17    19    20   ar
    18    20    21   ar
    19    21    22    1
    20    21    23   ar
    21    23    24    1
    22    23    25   ar
    23    25    26   ar
    24    26    27    1
    25    13     6    1
    26    26    19   ar
    27    12     8    1
    28     2     3    1
    29     2     4    1
@<TRIPOS>MOLECULE
*****
 27 29 0 0 0
SMALL
GASTEIGER

@<TRIPOS>ATOM
      1 C         137.9703  139.8367  161.8373 C.3     1  UNL1        0.0644
      2 N         136.9886  138.8967  161.2029 N.3     1  UNL1       -0.3215
      3 H         137.4909  138.2051  160.6464 H       1  UNL1        0.1188
      4 H         136.3548  139.4223  160.6009 H       1  UNL1        0.1188
      5 C         137.4820  140.9531  162.7120 C.3     1  UNL1        0.1011
      6 C         139.5369  144.2931  163.5740 C.3     1  UNL1        0.1672
      7 C         140.3298  144.4687  164.8352 C.3     1  UNL1        0.0372
      8 C         140.1962  143.2133  165.6454 C.3     1  UNL1        0.0210
      9 C         140.6036  142.5461  166.9255 C.3     1  UNL1        0.0018
     10 C         139.9800  141.1822  166.9561 C.3     1  UNL1        0.0018
     11 C         139.1871  141.0065  165.6950 C.3     1  UNL1        0.0198
     12 C         139.3207  142.2619  164.8849 C.3     1  UNL1        0.0763
     13 N         138.9133  142.9291  163.6047 N.am    1  UNL1       -0.2701
     14 C         138.0362  142.3365  162.5419 C.2     1  UNL1        0.2276
     15 O         137.7134  143.1275  161.3088 O.2     1  UNL1       -0.2748
     16 N         139.2490  146.3146  161.3762 N.1     1  UNL1       -0.1942
     17 C         139.3929  145.3038  162.4752 C.1     1  UNL1        0.0925
     18 C         139.4404  139.6604  161.5969 C.3     1  UNL1        0.0447
     19 C         140.3416  139.2552  162.7255 C.ar    1  UNL1        0.0090
     20 C         141.5208  140.1089  163.0872 C.ar    1  UNL1        0.0300
     21 C         142.4220  139.7037  164.2158 C.ar    1  UNL1        0.1672
     22 F         143.6011  140.5573  164.5776 F       1  UNL1       -0.2018
     23 C         142.1439  138.4448  164.9827 C.ar    1  UNL1        0.1696
     24 F         143.0451  138.0395  166.1112 F       1  UNL1       -0.2017
     25 C         140.9648  137.5911  164.6209 C.ar    1  UNL1        0.0612
     26 C         140.0636  137.9964  163.4923 C.ar    1  UNL1        0.1386
     27 F         138.8845  137.1427  163.1305 F       1  UNL1       -0.2044
@<TRIPOS>BOND
     1    16    17    3
     2     6    17    1
     3     6     7    1
     4     8     7    1
     5     8     9    1
     6     9    10    1
     7    10    11    1
     8    12    11    1
     9    12    13    1
    10    13    14   am
    11    14    15    2
    12    14     5    1
    13     5     1    1
    14     1     2    1
    15     1    18    1
    16    18    19    1
    17    19    20   ar
    18    20    21   ar
    19    21    22    1
    20    21    23   ar
    21    23    24    1
    22    23    25   ar
    23    25    26   ar
    24    26    27    1
    25    13     6    1
    26    26    19   ar
    27    12     8    1
    28     2     3    1
    29     2     4    1
@<TRIPOS>MOLECULE
*****
 27 29 0 0 0
SMALL
GASTEIGER

@<TRIPOS>ATOM
      1 C         139.0406  143.8381  164.2797 C.3     1  UNL1        0.0644
      2 N         138.8941  145.0912  165.0909 N.3     1  UNL1       -0.3215
      3 H         139.8115  145.5142  165.2318 H       1  UNL1        0.1188
      4 H         138.4818  144.8641  165.9958 H       1  UNL1        0.1188
      5 C         137.8298  143.0238  163.9321 C.3     1  UNL1        0.1011
      6 C         138.1408  139.6675  161.7504 C.3     1  UNL1        0.1672
      7 C         138.4247  138.3213  162.3480 C.3     1  UNL1        0.0372
      8 C         138.5574  138.4916  163.8324 C.3     1  UNL1        0.0210
      9 C         138.8149  137.7649  165.1191 C.3     1  UNL1        0.0018
     10 C         138.7721  138.7673  166.2341 C.3     1  UNL1        0.0018
     11 C         138.4882  140.1135  165.6366 C.3     1  UNL1        0.0198
     12 C         138.3555  139.9432  164.1522 C.3     1  UNL1        0.0763
     13 N         138.0980  140.6699  162.8656 N.am    1  UNL1       -0.2701
     14 C         137.8426  142.1408  162.7196 C.2     1  UNL1        0.2276
     15 O         137.5999  142.7287  161.3610 O.2     1  UNL1       -0.2748
     16 N         137.7305  140.2525  158.8368 N.1     1  UNL1       -0.1942
     17 C         137.9356  139.9600  160.2937 C.1     1  UNL1        0.0925
     18 C         140.3980  143.3992  163.8160 C.3     1  UNL1        0.0447
     19 C         141.1373  142.3305  164.5653 C.ar    1  UNL1        0.0090
     20 C         141.4387  142.5090  166.0239 C.ar    1  UNL1        0.0300
     21 C         142.1779  141.4403  166.7731 C.ar    1  UNL1        0.1672
     22 F         142.4793  141.6187  168.2316 F       1  UNL1       -0.2018
     23 C         142.6157  140.1932  166.0639 C.ar    1  UNL1        0.1696
     24 F         143.3550  139.1245  166.8132 F       1  UNL1       -0.2017
     25 C         142.3143  140.0148  164.6054 C.ar    1  UNL1        0.0612
     26 C         141.5751  141.0834  163.8561 C.ar    1  UNL1        0.1386
     27 F         141.2737  140.9050  162.3976 F       1  UNL1       -0.2044
@<TRIPOS>BOND
     1    16    17    3
     2     6    17    1
     3     6     7    1
     4     8     7    1
     5     8     9    1
     6     9    10    1
     7    10    11    1
     8    12    11    1
     9    12    13    1
    10    13    14   am
    11    14    15    2
    12    14     5    1
    13     5     1    1
    14     1     2    1
    15     1    18    1
    16    18    19    1
    17    19    20   ar
    18    20    21   ar
    19    21    22    1
    20    21    23   ar
    21    23    24    1
    22    23    25   ar
    23    25    26   ar
    24    26    27    1
    25    13     6    1
    26    26    19   ar
    27    12     8    1
    28     2     3    1
    29     2     4    1
@<TRIPOS>MOLECULE
*****
 27 29 0 0 0
SMALL
GASTEIGER

@<TRIPOS>ATOM
      1 C         137.9457  142.4517  163.2399 C.3     1  UNL1        0.0644
      2 N         137.5777  143.3728  162.1148 N.3     1  UNL1       -0.3215
      3 H         136.9696  142.8824  161.4589 H       1  UNL1        0.1188
      4 H         138.4240  143.6755  161.6325 H       1  UNL1        0.1188
      5 C         138.8385  142.9356  164.3439 C.3     1  UNL1        0.1011
      6 C         142.8162  143.2157  164.8125 C.3     1  UNL1        0.1672
      7 C         143.5529  142.6098  165.9702 C.3     1  UNL1        0.0372
      8 C         142.5498  141.9256  166.8510 C.3     1  UNL1        0.0210
      9 C         142.3852  141.1284  168.1109 C.3     1  UNL1        0.0018
     10 C         140.9268  140.8187  168.2761 C.3     1  UNL1        0.0018
     11 C         140.1902  141.4245  167.1184 C.3     1  UNL1        0.0198
     12 C         141.1932  142.1087  166.2377 C.3     1  UNL1        0.0763
     13 N         141.3578  142.9060  164.9778 N.am    1  UNL1       -0.2701
     14 C         140.2574  143.3207  164.0467 C.2     1  UNL1        0.2276
     15 O         140.5758  144.1206  162.8184 O.2     1  UNL1       -0.2748
     16 N         144.0440  144.7733  162.5617 N.1     1  UNL1       -0.1942
     17 C         143.4301  143.9945  163.6872 C.1     1  UNL1        0.0925
     18 C         137.4208  141.0466  163.2612 C.3     1  UNL1        0.0447
     19 C         138.3692  139.8940  163.4098 C.ar    1  UNL1        0.0090
     20 C         139.1928  139.4447  162.2393 C.ar    1  UNL1        0.0300
     21 C         140.1412  138.2921  162.3879 C.ar    1  UNL1        0.1672
     22 F         140.9648  137.8428  161.2176 F       1  UNL1       -0.2018
     23 C         140.2658  137.5887  163.7070 C.ar    1  UNL1        0.1696
     24 F         141.2142  136.4361  163.8556 F       1  UNL1       -0.2017
     25 C         139.4422  138.0380  164.8773 C.ar    1  UNL1        0.0612
     26 C         138.4939  139.1906  164.7287 C.ar    1  UNL1        0.1386
     27 F         137.6703  139.6399  165.8991 F       1  UNL1       -0.2044
@<TRIPOS>BOND
     1    16    17    3
     2     6    17    1
     3     6     7    1
     4     8     7    1
     5     8     9    1
     6     9    10    1
     7    10    11    1
     8    12    11    1
     9    12    13    1
    10    13    14   am
    11    14    15    2
    12    14     5    1
    13     5     1    1
    14     1     2    1
    15     1    18    1
    16    18    19    1
    17    19    20   ar
    18    20    21   ar
    19    21    22    1
    20    21    23   ar
    21    23    24    1
    22    23    25   ar
    23    25    26   ar
    24    26    27    1
    25    13     6    1
    26    26    19   ar
    27    12     8    1
    28     2     3    1
    29     2     4    1
@<TRIPOS>MOLECULE
*****
 27 29 0 0 0
SMALL
GASTEIGER

@<TRIPOS>ATOM
      1 C         138.8219  138.1471  163.3200 C.3     1  UNL1        0.0644
      2 N         138.1234  137.6758  162.0791 N.3     1  UNL1       -0.3215
      3 H         138.5250  136.7873  161.7796 H       1  UNL1        0.1188
      4 H         138.2401  138.3683  161.3394 H       1  UNL1        0.1188
      5 C         138.4148  139.4387  163.9651 C.3     1  UNL1        0.1011
      6 C         139.9823  140.7903  167.4056 C.3     1  UNL1        0.1672
      7 C         141.1587  141.7191  167.4647 C.3     1  UNL1        0.0372
      8 C         141.5900  142.0111  166.0581 C.3     1  UNL1        0.0210
      9 C         142.5836  142.7656  165.2253 C.3     1  UNL1        0.0018
     10 C         142.2878  142.4836  163.7821 C.3     1  UNL1        0.0018
     11 C         141.1114  141.5548  163.7228 C.3     1  UNL1        0.0198
     12 C         140.6801  141.2628  165.1295 C.3     1  UNL1        0.0763
     13 N         139.6865  140.5083  165.9623 N.am    1  UNL1       -0.2701
     14 C         138.5897  139.6266  165.4430 C.2     1  UNL1        0.2276
     15 O         137.6678  138.9329  166.4016 O.2     1  UNL1       -0.2748
     16 N         138.4841  139.6900  169.7602 N.1     1  UNL1       -0.1942
     17 C         139.2332  140.2402  168.5829 C.1     1  UNL1        0.0925
     18 C         139.9275  137.3269  163.9158 C.3     1  UNL1        0.0447
     19 C         141.3215  137.8777  163.9755 C.ar    1  UNL1        0.0090
     20 C         141.9876  138.0904  165.3026 C.ar    1  UNL1        0.0300
     21 C         143.3816  138.6412  165.3623 C.ar    1  UNL1        0.1672
     22 F         144.0477  138.8539  166.6893 F       1  UNL1       -0.2018
     23 C         144.1093  138.9793  164.0950 C.ar    1  UNL1        0.1696
     24 F         145.5033  139.5300  164.1547 F       1  UNL1       -0.2017
     25 C         143.4432  138.7665  162.7680 C.ar    1  UNL1        0.0612
     26 C         142.0492  138.2158  162.7083 C.ar    1  UNL1        0.1386
     27 F         141.3831  138.0030  161.3813 F       1  UNL1       -0.2044
@<TRIPOS>BOND
     1    16    17    3
     2     6    17    1
     3     6     7    1
     4     8     7    1
     5     8     9    1
     6     9    10    1
     7    10    11    1
     8    12    11    1
     9    12    13    1
    10    13    14   am
    11    14    15    2
    12    14     5    1
    13     5     1    1
    14     1     2    1
    15     1    18    1
    16    18    19    1
    17    19    20   ar
    18    20    21   ar
    19    21    22    1
    20    21    23   ar
    21    23    24    1
    22    23    25   ar
    23    25    26   ar
    24    26    27    1
    25    13     6    1
    26    26    19   ar
    27    12     8    1
    28     2     3    1
    29     2     4    1
