@<TRIPOS>MOLECULE
*****
 35 39 0 0 0
SMALL
GASTEIGER

@<TRIPOS>ATOM
      1 C         142.2593  139.0694  162.2051 C.2     1  UNL1       -0.0153
      2 C         143.3299  138.1031  161.7928 C.2     1  UNL1       -0.0038
      3 C         143.3884  137.6073  160.3784 C.2     1  UNL1        0.0026
      4 C         142.3763  138.0778  159.3762 C.2     1  UNL1        0.0395
      5 C         142.1836  137.7652  157.9218 C.2     1  UNL1        0.1571
      6 N         140.9939  138.5384  157.4353 N.2     1  UNL1       -0.1436
      7 N         140.4513  139.3288  158.5890 N.2     1  UNL1       -0.1519
      8 C         141.3057  139.0441  159.7885 C.2     1  UNL1        0.0865
      9 C         141.2472  139.5399  161.2030 C.3     1  UNL1        0.0740
     10 C         142.0838  140.5570  166.4486 C.ar    1  UNL1        0.0677
     11 C         142.9670  141.2433  165.4491 C.ar    1  UNL1        0.0177
     12 C         143.0255  140.7475  164.0347 C.ar    1  UNL1        0.0020
     13 C         142.2008  139.5653  163.6196 C.ar    1  UNL1        0.0071
     14 C         141.3176  138.8789  164.6190 C.ar    1  UNL1        0.0588
     15 CL        140.4929  137.6967  164.2040 Cl      1  UNL1       -0.0822
     16 C         141.2590  139.3748  166.0335 C.ar    1  UNL1        0.0290
     17 C         140.3749  144.0032  169.9418 C.3     1  UNL1        0.0360
     18 C         141.1709  142.7760  169.6096 C.ar    1  UNL1        0.0347
     19 C         141.9083  142.0446  170.6919 C.ar    1  UNL1        0.0020
     20 C         142.7042  140.8173  170.3597 C.ar    1  UNL1        0.0189
     21 C         142.7627  140.3215  168.9452 C.ar    1  UNL1        0.0829
     22 N         142.0253  141.0529  167.8630 N.ar    1  UNL1       -0.2734
     23 C         141.2294  142.2801  168.1952 C.ar    1  UNL1        0.2607
     24 O         140.4919  143.0115  167.1130 O.2     1  UNL1       -0.2670
     25 C         143.0317  136.8417  157.0985 C.2     1  UNL1        0.2656
     26 O         144.0111  137.4033  156.1110 O.2     1  UNL1       -0.2684
     27 N         142.9003  135.3565  157.2628 N.am    1  UNL1       -0.2956
     28 H         142.2574  134.9879  157.9110 H       1  UNL1        0.1501
     29 C         143.7483  134.4329  156.4396 C.3     1  UNL1        0.1167
     30 C         143.8007  132.9702  156.7679 C.ar    1  UNL1        0.0005
     31 C         144.8573  132.4471  157.6952 C.ar    1  UNL1        0.0181
     32 C         144.9096  130.9844  158.0236 C.ar    1  UNL1        0.0986
     33 N         143.9054  130.0449  157.4246 N.ar    1  UNL1       -0.2423
     34 C         142.8487  130.5680  156.4974 C.ar    1  UNL1        0.0986
     35 C         142.7964  132.0307  156.1690 C.ar    1  UNL1        0.0181
@<TRIPOS>BOND
     1    17    18    1
     2    18    19   ar
     3    19    20   ar
     4    20    21   ar
     5    21    22   ar
     6    22    10    1
     7    10    11   ar
     8    11    12   ar
     9    12    13   ar
    10    13     1    1
    11     1     2    2
    12     2     3    1
    13     3     4    2
    14     4     5    1
    15     5    25    1
    16    25    26    2
    17    25    27   am
    18    27    29    1
    19    29    30    1
    20    30    31   ar
    21    31    32   ar
    22    32    33   ar
    23    33    34   ar
    24    34    35   ar
    25     5     6    2
    26     6     7    1
    27     7     8    2
    28     8     9    1
    29    13    14   ar
    30    14    15    1
    31    14    16   ar
    32    22    23   ar
    33    23    24    2
    34    23    18   ar
    35    16    10   ar
    36     9     1    1
    37     8     4    1
    38    35    30   ar
    39    27    28    1
@<TRIPOS>MOLECULE
*****
 35 39 0 0 0
SMALL
GASTEIGER

@<TRIPOS>ATOM
      1 C         141.8879  139.0220  162.0133 C.2     1  UNL1       -0.0153
      2 C         142.9803  138.1298  161.5028 C.2     1  UNL1       -0.0038
      3 C         142.9552  137.6515  160.0814 C.2     1  UNL1        0.0026
      4 C         141.8377  138.0654  159.1704 C.2     1  UNL1        0.0395
      5 C         141.5479  137.7543  157.7318 C.2     1  UNL1        0.1571
      6 N         140.2764  138.4542  157.3533 N.2     1  UNL1       -0.1436
      7 N         139.7804  139.1979  158.5579 N.2     1  UNL1       -0.1519
      8 C         140.7453  138.9576  159.6809 C.2     1  UNL1        0.0865
      9 C         140.7704  139.4358  161.1023 C.3     1  UNL1        0.0740
     10 C         141.9631  140.4570  166.2778 C.ar    1  UNL1        0.0677
     11 C         142.8716  141.0810  165.2603 C.ar    1  UNL1        0.0177
     12 C         142.8465  140.6027  163.8388 C.ar    1  UNL1        0.0020
     13 C         141.9130  139.5003  163.4348 C.ar    1  UNL1        0.0071
     14 C         141.0045  138.8763  164.4522 C.ar    1  UNL1        0.0588
     15 CL        140.0709  137.7739  164.0482 Cl      1  UNL1       -0.0822
     16 C         141.0295  139.3546  165.8738 C.ar    1  UNL1        0.0290
     17 C         140.5264  143.9024  169.8923 C.3     1  UNL1        0.0360
     18 C         141.2699  142.6580  169.5065 C.ar    1  UNL1        0.0347
     19 C         142.0384  141.8920  170.5422 C.ar    1  UNL1        0.0020
     20 C         142.7818  140.6476  170.1563 C.ar    1  UNL1        0.0189
     21 C         142.7567  140.1693  168.7348 C.ar    1  UNL1        0.0829
     22 N         141.9882  140.9353  167.6992 N.ar    1  UNL1       -0.2734
     23 C         141.2448  142.1797  168.0850 C.ar    1  UNL1        0.2607
     24 O         140.4763  142.9457  167.0494 O.2     1  UNL1       -0.2670
     25 C         142.3831  136.8943  156.8302 C.2     1  UNL1        0.2656
     26 O         143.7406  137.3608  156.3950 O.2     1  UNL1       -0.2684
     27 N         141.8606  135.5678  156.3638 N.am    1  UNL1       -0.2956
     28 H         140.9696  135.2617  156.6495 H       1  UNL1        0.1501
     29 C         142.6957  134.7078  155.4622 C.3     1  UNL1        0.1167
     30 C         143.4920  133.5728  156.0346 C.ar    1  UNL1        0.0005
     31 C         143.6751  132.3114  155.2439 C.ar    1  UNL1        0.0181
     32 C         144.4714  131.1764  155.8163 C.ar    1  UNL1        0.0986
     33 N         145.0847  131.3028  157.1794 N.ar    1  UNL1       -0.2423
     34 C         144.9016  132.5643  157.9700 C.ar    1  UNL1        0.0986
     35 C         144.1053  133.6993  157.3977 C.ar    1  UNL1        0.0181
@<TRIPOS>BOND
     1    17    18    1
     2    18    19   ar
     3    19    20   ar
     4    20    21   ar
     5    21    22   ar
     6    22    10    1
     7    10    11   ar
     8    11    12   ar
     9    12    13   ar
    10    13     1    1
    11     1     2    2
    12     2     3    1
    13     3     4    2
    14     4     5    1
    15     5    25    1
    16    25    26    2
    17    25    27   am
    18    27    29    1
    19    29    30    1
    20    30    31   ar
    21    31    32   ar
    22    32    33   ar
    23    33    34   ar
    24    34    35   ar
    25     5     6    2
    26     6     7    1
    27     7     8    2
    28     8     9    1
    29    13    14   ar
    30    14    15    1
    31    14    16   ar
    32    22    23   ar
    33    23    24    2
    34    23    18   ar
    35    16    10   ar
    36     9     1    1
    37     8     4    1
    38    35    30   ar
    39    27    28    1
@<TRIPOS>MOLECULE
*****
 35 39 0 0 0
SMALL
GASTEIGER

@<TRIPOS>ATOM
      1 C         139.3191  141.3970  161.8339 C.2     1  UNL1       -0.0153
      2 C         138.3499  140.3902  161.2891 C.2     1  UNL1       -0.0038
      3 C         137.8508  140.5156  159.8802 C.2     1  UNL1        0.0026
      4 C         138.3210  141.6479  159.0160 C.2     1  UNL1        0.0395
      5 C         138.0056  142.0274  157.5994 C.2     1  UNL1        0.1571
      6 N         138.7799  143.2687  157.2687 N.2     1  UNL1       -0.1436
      7 N         139.5739  143.6565  158.4809 N.2     1  UNL1       -0.1519
      8 C         139.2903  142.6547  159.5607 C.2     1  UNL1        0.0865
      9 C         139.7893  142.5293  160.9697 C.3     1  UNL1        0.0740
     10 C         140.8165  141.0207  166.0608 C.ar    1  UNL1        0.0677
     11 C         141.4626  140.2286  164.9629 C.ar    1  UNL1        0.0177
     12 C         140.9634  140.3541  163.5540 C.ar    1  UNL1        0.0020
     13 C         139.8183  141.2716  163.2429 C.ar    1  UNL1        0.0071
     14 C         139.1722  142.0636  164.3407 C.ar    1  UNL1        0.0588
     15 CL        138.0271  142.9811  164.0296 Cl      1  UNL1       -0.0822
     16 C         139.6714  141.9382  165.7497 C.ar    1  UNL1        0.0290
     17 C         144.1767  142.3836  169.7825 C.3     1  UNL1        0.0360
     18 C         142.9957  141.5767  169.3306 C.ar    1  UNL1        0.0347
     19 C         142.3139  140.6443  170.2876 C.ar    1  UNL1        0.0020
     20 C         141.1330  139.8374  169.8356 C.ar    1  UNL1        0.0189
     21 C         140.6338  139.9629  168.4266 C.ar    1  UNL1        0.0829
     22 N         141.3157  140.8952  167.4697 N.ar    1  UNL1       -0.2734
     23 C         142.4966  141.7021  167.9217 C.ar    1  UNL1        0.2607
     24 O         143.1784  142.6345  166.9647 O.2     1  UNL1       -0.2670
     25 C         137.0786  141.2942  156.6758 C.2     1  UNL1        0.2656
     26 O         137.3629  139.8692  156.3036 O.2     1  UNL1       -0.2684
     27 N         135.8673  141.9860  156.1243 N.am    1  UNL1       -0.2956
     28 H         135.6807  142.9213  156.3686 H       1  UNL1        0.1501
     29 C         134.9403  141.2529  155.2007 C.3     1  UNL1        0.1167
     30 C         133.6887  140.6243  155.7377 C.ar    1  UNL1        0.0005
     31 C         132.3672  141.3102  155.5558 C.ar    1  UNL1        0.0181
     32 C         131.1157  140.6815  156.0928 C.ar    1  UNL1        0.0986
     33 N         131.1857  139.3669  156.8118 N.ar    1  UNL1       -0.2423
     34 C         132.5071  138.6810  156.9938 C.ar    1  UNL1        0.0986
     35 C         133.7587  139.3097  156.4567 C.ar    1  UNL1        0.0181
@<TRIPOS>BOND
     1    17    18    1
     2    18    19   ar
     3    19    20   ar
     4    20    21   ar
     5    21    22   ar
     6    22    10    1
     7    10    11   ar
     8    11    12   ar
     9    12    13   ar
    10    13     1    1
    11     1     2    2
    12     2     3    1
    13     3     4    2
    14     4     5    1
    15     5    25    1
    16    25    26    2
    17    25    27   am
    18    27    29    1
    19    29    30    1
    20    30    31   ar
    21    31    32   ar
    22    32    33   ar
    23    33    34   ar
    24    34    35   ar
    25     5     6    2
    26     6     7    1
    27     7     8    2
    28     8     9    1
    29    13    14   ar
    30    14    15    1
    31    14    16   ar
    32    22    23   ar
    33    23    24    2
    34    23    18   ar
    35    16    10   ar
    36     9     1    1
    37     8     4    1
    38    35    30   ar
    39    27    28    1
@<TRIPOS>MOLECULE
*****
 35 39 0 0 0
SMALL
GASTEIGER

@<TRIPOS>ATOM
      1 C         142.5854  139.4418  162.2750 C.2     1  UNL1       -0.0153
      2 C         142.0265  138.1721  161.7044 C.2     1  UNL1       -0.0038
      3 C         142.1963  137.8669  160.2457 C.2     1  UNL1        0.0026
      4 C         142.9250  138.8313  159.3575 C.2     1  UNL1        0.0395
      5 C         143.2456  138.8009  157.8924 C.2     1  UNL1        0.1571
      6 N         144.0026  140.0518  157.5575 N.2     1  UNL1       -0.1436
      7 N         144.1499  140.8553  158.8156 N.2     1  UNL1       -0.1519
      8 C         143.4838  140.1010  159.9280 C.2     1  UNL1        0.0865
      9 C         143.3141  140.4062  161.3868 C.3     1  UNL1        0.0740
     10 C         142.0761  140.3576  166.6513 C.ar    1  UNL1        0.0677
     11 C         143.0910  139.3450  166.2101 C.ar    1  UNL1        0.0177
     12 C         143.2608  139.0397  164.7513 C.ar    1  UNL1        0.0020
     13 C         142.4156  139.7471  163.7338 C.ar    1  UNL1        0.0071
     14 C         141.4007  140.7596  164.1750 C.ar    1  UNL1        0.0588
     15 CL        140.5556  141.4669  163.1574 Cl      1  UNL1       -0.0822
     16 C         141.2310  141.0649  165.6338 C.ar    1  UNL1        0.0290
     17 C         143.1641  143.3083  170.7876 C.3     1  UNL1        0.0360
     18 C         142.4504  142.1381  170.1782 C.ar    1  UNL1        0.0347
     19 C         141.5669  141.2732  171.0276 C.ar    1  UNL1        0.0020
     20 C         140.8532  140.1031  170.4182 C.ar    1  UNL1        0.0189
     21 C         141.0229  139.7979  168.9594 C.ar    1  UNL1        0.0829
     22 N         141.9064  140.6628  168.1101 N.ar    1  UNL1       -0.2734
     23 C         142.6201  141.8329  168.7195 C.ar    1  UNL1        0.2607
     24 O         143.5036  142.6978  167.8702 O.2     1  UNL1       -0.2670
     25 C         142.8743  137.7110  156.9311 C.2     1  UNL1        0.2656
     26 O         141.4376  137.3116  156.7684 O.2     1  UNL1       -0.2684
     27 N         143.9398  137.0204  156.1324 N.am    1  UNL1       -0.2956
     28 H         144.8827  137.2825  156.2391 H       1  UNL1        0.1501
     29 C         143.5686  135.9305  155.1710 C.3     1  UNL1        0.1167
     30 C         143.2176  134.5653  155.6840 C.ar    1  UNL1        0.0005
     31 C         143.8871  134.0319  156.9157 C.ar    1  UNL1        0.0181
     32 C         143.5360  132.6668  157.4287 C.ar    1  UNL1        0.0986
     33 N         142.5155  131.8351  156.7099 N.ar    1  UNL1       -0.2423
     34 C         141.8459  132.3684  155.4782 C.ar    1  UNL1        0.0986
     35 C         142.1970  133.7336  154.9652 C.ar    1  UNL1        0.0181
@<TRIPOS>BOND
     1    17    18    1
     2    18    19   ar
     3    19    20   ar
     4    20    21   ar
     5    21    22   ar
     6    22    10    1
     7    10    11   ar
     8    11    12   ar
     9    12    13   ar
    10    13     1    1
    11     1     2    2
    12     2     3    1
    13     3     4    2
    14     4     5    1
    15     5    25    1
    16    25    26    2
    17    25    27   am
    18    27    29    1
    19    29    30    1
    20    30    31   ar
    21    31    32   ar
    22    32    33   ar
    23    33    34   ar
    24    34    35   ar
    25     5     6    2
    26     6     7    1
    27     7     8    2
    28     8     9    1
    29    13    14   ar
    30    14    15    1
    31    14    16   ar
    32    22    23   ar
    33    23    24    2
    34    23    18   ar
    35    16    10   ar
    36     9     1    1
    37     8     4    1
    38    35    30   ar
    39    27    28    1
@<TRIPOS>MOLECULE
*****
 35 39 0 0 0
SMALL
GASTEIGER

@<TRIPOS>ATOM
      1 C         142.5360  139.2888  161.5771 C.2     1  UNL1       -0.0153
      2 C         142.8235  137.8509  161.2614 C.2     1  UNL1       -0.0038
      3 C         142.9458  137.4063  159.8341 C.2     1  UNL1        0.0026
      4 C         142.7805  138.3997  158.7224 C.2     1  UNL1        0.0395
      5 C         142.8458  138.2567  157.2306 C.2     1  UNL1        0.1571
      6 N         142.5986  139.6062  156.6243 N.2     1  UNL1       -0.1436
      7 N         142.3806  140.5833  157.7414 N.2     1  UNL1       -0.1519
      8 C         142.4931  139.8376  159.0380 C.2     1  UNL1        0.0865
      9 C         142.3708  140.2822  160.4654 C.3     1  UNL1        0.0740
     10 C         142.1692  140.6225  165.8593 C.ar    1  UNL1        0.0677
     11 C         140.9891  140.0171  165.1585 C.ar    1  UNL1        0.0177
     12 C         141.1114  139.5725  163.7312 C.ar    1  UNL1        0.0020
     13 C         142.4137  139.7334  163.0045 C.ar    1  UNL1        0.0071
     14 C         143.5938  140.3388  163.7052 C.ar    1  UNL1        0.0588
     15 CL        144.8961  140.4996  162.9785 Cl      1  UNL1       -0.0822
     16 C         143.4715  140.7834  165.1326 C.ar    1  UNL1        0.0290
     17 C         142.9790  139.7753  170.9215 C.3     1  UNL1        0.0360
     18 C         142.4518  140.6435  169.8177 C.ar    1  UNL1        0.0347
     19 C         141.8022  141.9563  170.1414 C.ar    1  UNL1        0.0020
     20 C         141.2749  142.8244  169.0376 C.ar    1  UNL1        0.0189
     21 C         141.3973  142.3798  167.6102 C.ar    1  UNL1        0.0829
     22 N         142.0468  141.0671  167.2866 N.ar    1  UNL1       -0.2734
     23 C         142.5741  140.1989  168.3904 C.ar    1  UNL1        0.2607
     24 O         143.2236  138.8862  168.0668 O.2     1  UNL1       -0.2670
     25 C         143.1116  136.9870  156.4774 C.2     1  UNL1        0.2656
     26 O         144.3708  136.8402  155.6756 O.2     1  UNL1       -0.2684
     27 N         142.1181  135.8642  156.5260 N.am    1  UNL1       -0.2956
     28 H         141.2917  135.9606  157.0522 H       1  UNL1        0.1501
     29 C         142.3838  134.5945  155.7728 C.3     1  UNL1        0.1167
     30 C         143.0621  133.4447  156.4567 C.ar    1  UNL1        0.0005
     31 C         144.2683  133.6880  157.3144 C.ar    1  UNL1        0.0181
     32 C         144.9466  132.5381  157.9983 C.ar    1  UNL1        0.0986
     33 N         144.4186  131.1449  157.8245 N.ar    1  UNL1       -0.2423
     34 C         143.2123  130.9016  156.9669 C.ar    1  UNL1        0.0986
     35 C         142.5340  132.0515  156.2829 C.ar    1  UNL1        0.0181
@<TRIPOS>BOND
     1    17    18    1
     2    18    19   ar
     3    19    20   ar
     4    20    21   ar
     5    21    22   ar
     6    22    10    1
     7    10    11   ar
     8    11    12   ar
     9    12    13   ar
    10    13     1    1
    11     1     2    2
    12     2     3    1
    13     3     4    2
    14     4     5    1
    15     5    25    1
    16    25    26    2
    17    25    27   am
    18    27    29    1
    19    29    30    1
    20    30    31   ar
    21    31    32   ar
    22    32    33   ar
    23    33    34   ar
    24    34    35   ar
    25     5     6    2
    26     6     7    1
    27     7     8    2
    28     8     9    1
    29    13    14   ar
    30    14    15    1
    31    14    16   ar
    32    22    23   ar
    33    23    24    2
    34    23    18   ar
    35    16    10   ar
    36     9     1    1
    37     8     4    1
    38    35    30   ar
    39    27    28    1
@<TRIPOS>MOLECULE
*****
 35 39 0 0 0
SMALL
GASTEIGER

@<TRIPOS>ATOM
      1 C         140.3238  139.7710  162.0453 C.2     1  UNL1       -0.0153
      2 C         141.0790  138.6361  161.4194 C.2     1  UNL1       -0.0038
      3 C         140.8177  138.2585  159.9915 C.2     1  UNL1        0.0026
      4 C         139.8011  139.0156  159.1895 C.2     1  UNL1        0.0395
      5 C         139.3328  138.8732  157.7715 C.2     1  UNL1        0.1571
      6 N         138.2881  139.9201  157.5211 N.2     1  UNL1       -0.1436
      7 N         138.1108  140.7094  158.7842 N.2     1  UNL1       -0.1519
      8 C         139.0458  140.1504  159.8153 C.2     1  UNL1        0.0865
      9 C         139.3072  140.5281  161.2432 C.3     1  UNL1        0.0740
     10 C         141.1077  140.9042  166.3292 C.ar    1  UNL1        0.0677
     11 C         141.8501  141.5937  165.2230 C.ar    1  UNL1        0.0177
     12 C         141.5887  141.2160  163.7951 C.ar    1  UNL1        0.0020
     13 C         140.5851  140.1487  163.4733 C.ar    1  UNL1        0.0071
     14 C         139.8427  139.4592  164.5794 C.ar    1  UNL1        0.0588
     15 CL        138.8391  138.3919  164.2575 Cl      1  UNL1       -0.0822
     16 C         140.1041  139.8369  166.0074 C.ar    1  UNL1        0.0290
     17 C         143.3583  139.9131  170.9066 C.3     1  UNL1        0.0360
     18 C         142.4943  140.7864  170.0458 C.ar    1  UNL1        0.0347
     19 C         141.8917  142.0375  170.6130 C.ar    1  UNL1        0.0020
     20 C         141.0278  142.9108  169.7522 C.ar    1  UNL1        0.0189
     21 C         140.7664  142.5330  168.3242 C.ar    1  UNL1        0.0829
     22 N         141.3690  141.2819  167.7571 N.ar    1  UNL1       -0.2734
     23 C         142.2330  140.4086  168.6179 C.ar    1  UNL1        0.2607
     24 O         142.8356  139.1576  168.0508 O.2     1  UNL1       -0.2670
     25 C         139.8231  137.8616  156.7784 C.2     1  UNL1        0.2656
     26 O         138.8478  136.9562  156.0864 O.2     1  UNL1       -0.2684
     27 N         141.2887  137.7555  156.4774 N.am    1  UNL1       -0.2956
     28 H         141.9289  138.3497  156.9316 H       1  UNL1        0.1501
     29 C         141.7791  136.7439  155.4843 C.3     1  UNL1        0.1167
     30 C         142.1021  135.3491  155.9317 C.ar    1  UNL1        0.0005
     31 C         143.0712  135.1272  157.0549 C.ar    1  UNL1        0.0181
     32 C         143.3942  133.7324  157.5023 C.ar    1  UNL1        0.0986
     33 N         142.7481  132.5594  156.8264 N.ar    1  UNL1       -0.2423
     34 C         141.7789  132.7813  155.7033 C.ar    1  UNL1        0.0986
     35 C         141.4560  134.1761  155.2559 C.ar    1  UNL1        0.0181
@<TRIPOS>BOND
     1    17    18    1
     2    18    19   ar
     3    19    20   ar
     4    20    21   ar
     5    21    22   ar
     6    22    10    1
     7    10    11   ar
     8    11    12   ar
     9    12    13   ar
    10    13     1    1
    11     1     2    2
    12     2     3    1
    13     3     4    2
    14     4     5    1
    15     5    25    1
    16    25    26    2
    17    25    27   am
    18    27    29    1
    19    29    30    1
    20    30    31   ar
    21    31    32   ar
    22    32    33   ar
    23    33    34   ar
    24    34    35   ar
    25     5     6    2
    26     6     7    1
    27     7     8    2
    28     8     9    1
    29    13    14   ar
    30    14    15    1
    31    14    16   ar
    32    22    23   ar
    33    23    24    2
    34    23    18   ar
    35    16    10   ar
    36     9     1    1
    37     8     4    1
    38    35    30   ar
    39    27    28    1
@<TRIPOS>MOLECULE
*****
 35 39 0 0 0
SMALL
GASTEIGER

@<TRIPOS>ATOM
      1 C         141.9532  139.6841  161.9218 C.2     1  UNL1       -0.0153
      2 C         141.3637  138.4495  161.3069 C.2     1  UNL1       -0.0038
      3 C         141.7273  138.0636  159.9037 C.2     1  UNL1        0.0026
      4 C         142.6803  138.9125  159.1154 C.2     1  UNL1        0.0395
      5 C         143.2210  138.7851  157.7220 C.2     1  UNL1        0.1571
      6 N         144.1446  139.9411  157.4758 N.2     1  UNL1       -0.1436
      7 N         144.1747  140.7828  158.7170 N.2     1  UNL1       -0.1519
      8 C         143.2697  140.1471  159.7303 C.2     1  UNL1        0.0865
      9 C         142.9061  140.5330  161.1335 C.3     1  UNL1        0.0740
     10 C         140.8626  140.8418  166.1314 C.ar    1  UNL1        0.0677
     11 C         141.9866  139.8793  165.8855 C.ar    1  UNL1        0.0177
     12 C         142.3501  139.4935  164.4823 C.ar    1  UNL1        0.0020
     13 C         141.5896  140.0700  163.3250 C.ar    1  UNL1        0.0071
     14 C         140.4656  141.0324  163.5709 C.ar    1  UNL1        0.0588
     15 CL        139.7052  141.6089  162.4136 Cl      1  UNL1       -0.0822
     16 C         140.1021  141.4183  164.9741 C.ar    1  UNL1        0.0290
     17 C         138.1724  139.9575  170.4881 C.3     1  UNL1        0.0360
     18 C         139.1540  140.7855  169.7129 C.ar    1  UNL1        0.0347
     19 C         139.7721  141.9994  170.3410 C.ar    1  UNL1        0.0020
     20 C         140.7537  142.8274  169.5659 C.ar    1  UNL1        0.0189
     21 C         141.1172  142.4414  168.1626 C.ar    1  UNL1        0.0829
     22 N         140.4991  141.2276  167.5346 N.ar    1  UNL1       -0.2734
     23 C         139.5175  140.3996  168.3097 C.ar    1  UNL1        0.2607
     24 O         138.8993  139.1858  167.6817 O.2     1  UNL1       -0.2670
     25 C         142.8953  137.6934  156.7463 C.2     1  UNL1        0.2656
     26 O         141.4646  137.3445  156.4613 O.2     1  UNL1       -0.2684
     27 N         144.0004  136.9507  156.0554 N.am    1  UNL1       -0.2956
     28 H         144.9394  137.1798  156.2425 H       1  UNL1        0.1501
     29 C         143.6748  135.8590  155.0797 C.3     1  UNL1        0.1167
     30 C         143.2533  134.5086  155.5782 C.ar    1  UNL1        0.0005
     31 C         142.1660  133.7542  154.8720 C.ar    1  UNL1        0.0181
     32 C         141.7445  132.4037  155.3706 C.ar    1  UNL1        0.0986
     33 N         142.4104  131.8076  156.5752 N.ar    1  UNL1       -0.2423
     34 C         143.4977  132.5619  157.2814 C.ar    1  UNL1        0.0986
     35 C         143.9192  133.9124  156.7829 C.ar    1  UNL1        0.0181
@<TRIPOS>BOND
     1    17    18    1
     2    18    19   ar
     3    19    20   ar
     4    20    21   ar
     5    21    22   ar
     6    22    10    1
     7    10    11   ar
     8    11    12   ar
     9    12    13   ar
    10    13     1    1
    11     1     2    2
    12     2     3    1
    13     3     4    2
    14     4     5    1
    15     5    25    1
    16    25    26    2
    17    25    27   am
    18    27    29    1
    19    29    30    1
    20    30    31   ar
    21    31    32   ar
    22    32    33   ar
    23    33    34   ar
    24    34    35   ar
    25     5     6    2
    26     6     7    1
    27     7     8    2
    28     8     9    1
    29    13    14   ar
    30    14    15    1
    31    14    16   ar
    32    22    23   ar
    33    23    24    2
    34    23    18   ar
    35    16    10   ar
    36     9     1    1
    37     8     4    1
    38    35    30   ar
    39    27    28    1
@<TRIPOS>MOLECULE
*****
 35 39 0 0 0
SMALL
GASTEIGER

@<TRIPOS>ATOM
      1 C         139.9894  139.3714  161.6498 C.2     1  UNL1       -0.0153
      2 C         141.0427  138.4240  161.1571 C.2     1  UNL1       -0.0038
      3 C         141.0976  138.0529  159.7048 C.2     1  UNL1        0.0026
      4 C         140.0990  138.6292  158.7452 C.2     1  UNL1        0.0395
      5 C         139.9064  138.4490  157.2685 C.2     1  UNL1        0.1571
      6 N         138.7339  139.2851  156.8486 N.2     1  UNL1       -0.1436
      7 N         138.2020  139.9819  158.0658 N.2     1  UNL1       -0.1519
      8 C         139.0456  139.5765  159.2379 C.2     1  UNL1        0.0865
      9 C         138.9908  139.9476  160.6902 C.3     1  UNL1        0.0740
     10 C         139.8248  140.4848  166.0068 C.ar    1  UNL1        0.0677
     11 C         141.0793  139.8994  165.4291 C.ar    1  UNL1        0.0177
     12 C         141.1341  139.5283  163.9768 C.ar    1  UNL1        0.0020
     13 C         139.9345  139.7425  163.1022 C.ar    1  UNL1        0.0071
     14 C         138.6801  140.3279  163.6798 C.ar    1  UNL1        0.0588
     15 CL        137.4805  140.5422  162.8051 Cl      1  UNL1       -0.0822
     16 C         138.6252  140.6991  165.1322 C.ar    1  UNL1        0.0290
     17 C         140.7006  143.9139  169.8113 C.3     1  UNL1        0.0360
     18 C         140.2079  142.5705  169.3613 C.ar    1  UNL1        0.0347
     19 C         139.6604  141.5981  170.3638 C.ar    1  UNL1        0.0020
     20 C         139.1677  140.2547  169.9139 C.ar    1  UNL1        0.0189
     21 C         139.2225  139.8836  168.4615 C.ar    1  UNL1        0.0829
     22 N         139.7700  140.8559  167.4591 N.ar    1  UNL1       -0.2734
     23 C         140.2627  142.1994  167.9091 C.ar    1  UNL1        0.2607
     24 O         140.8103  143.1717  166.9067 O.2     1  UNL1       -0.2670
     25 C         140.7399  137.5846  156.3696 C.2     1  UNL1        0.2656
     26 O         142.0606  138.0835  155.8629 O.2     1  UNL1       -0.2684
     27 N         140.2526  136.2212  155.9774 N.am    1  UNL1       -0.2956
     28 H         139.3857  135.8938  156.3099 H       1  UNL1        0.1501
     29 C         141.0860  135.3567  155.0785 C.3     1  UNL1        0.1167
     30 C         141.8413  134.1922  155.6471 C.ar    1  UNL1        0.0005
     31 C         142.9974  134.4282  156.5731 C.ar    1  UNL1        0.0181
     32 C         143.7527  133.2636  157.1418 C.ar    1  UNL1        0.0986
     33 N         143.3518  131.8631  156.7844 N.ar    1  UNL1       -0.2423
     34 C         142.1957  131.6271  155.8583 C.ar    1  UNL1        0.0986
     35 C         141.4404  132.7916  155.2897 C.ar    1  UNL1        0.0181
@<TRIPOS>BOND
     1    17    18    1
     2    18    19   ar
     3    19    20   ar
     4    20    21   ar
     5    21    22   ar
     6    22    10    1
     7    10    11   ar
     8    11    12   ar
     9    12    13   ar
    10    13     1    1
    11     1     2    2
    12     2     3    1
    13     3     4    2
    14     4     5    1
    15     5    25    1
    16    25    26    2
    17    25    27   am
    18    27    29    1
    19    29    30    1
    20    30    31   ar
    21    31    32   ar
    22    32    33   ar
    23    33    34   ar
    24    34    35   ar
    25     5     6    2
    26     6     7    1
    27     7     8    2
    28     8     9    1
    29    13    14   ar
    30    14    15    1
    31    14    16   ar
    32    22    23   ar
    33    23    24    2
    34    23    18   ar
    35    16    10   ar
    36     9     1    1
    37     8     4    1
    38    35    30   ar
    39    27    28    1
@<TRIPOS>MOLECULE
*****
 35 39 0 0 0
SMALL
GASTEIGER

@<TRIPOS>ATOM
      1 C         143.5092  140.8834  161.2429 C.2     1  UNL1       -0.0153
      2 C         144.0827  142.1392  160.6564 C.2     1  UNL1       -0.0038
      3 C         144.4402  142.1918  159.2006 C.2     1  UNL1        0.0026
      4 C         144.2243  140.9886  158.3313 C.2     1  UNL1        0.0395
      5 C         144.4794  140.7449  156.8734 C.2     1  UNL1        0.1571
      6 N         144.0635  139.3384  156.5589 N.2     1  UNL1       -0.1436
      7 N         143.5515  138.7129  157.8224 N.2     1  UNL1       -0.1519
      8 C         143.6509  139.7328  158.9179 C.2     1  UNL1        0.0865
      9 C         143.2933  139.6802  160.3737 C.3     1  UNL1        0.0740
     10 C         142.4364  140.7256  165.6104 C.ar    1  UNL1        0.0677
     11 C         141.3910  140.4489  164.5708 C.ar    1  UNL1        0.0177
     12 C         141.7487  140.5016  163.1150 C.ar    1  UNL1        0.0020
     13 C         143.1516  140.8308  162.6988 C.ar    1  UNL1        0.0071
     14 C         144.1970  141.1075  163.7383 C.ar    1  UNL1        0.0588
     15 CL        145.5999  141.4367  163.3220 Cl      1  UNL1       -0.0822
     16 C         143.8394  141.0549  165.1941 C.ar    1  UNL1        0.0290
     17 C         142.7661  138.3970  170.2438 C.3     1  UNL1        0.0360
     18 C         142.2436  139.5087  169.3829 C.ar    1  UNL1        0.0347
     19 C         141.3635  140.5678  169.9777 C.ar    1  UNL1        0.0020
     20 C         140.8410  141.6794  169.1168 C.ar    1  UNL1        0.0189
     21 C         141.1987  141.7320  167.6609 C.ar    1  UNL1        0.0829
     22 N         142.0788  140.6730  167.0661 N.ar    1  UNL1       -0.2734
     23 C         142.6012  139.5613  167.9271 C.ar    1  UNL1        0.2607
     24 O         143.4813  138.5023  167.3323 O.2     1  UNL1       -0.2670
     25 C         145.0500  141.7339  155.9007 C.2     1  UNL1        0.2656
     26 O         144.3447  143.0343  155.6526 O.2     1  UNL1       -0.2684
     27 N         146.3261  141.4227  155.1763 N.am    1  UNL1       -0.2956
     28 H         146.7890  140.5692  155.3392 H       1  UNL1        0.1501
     29 C         146.8968  142.4117  154.2036 C.3     1  UNL1        0.1167
     30 C         148.3835  142.5607  154.0708 C.ar    1  UNL1        0.0005
     31 C         148.9545  143.5186  153.0676 C.ar    1  UNL1        0.0181
     32 C         150.4412  143.6676  152.9348 C.ar    1  UNL1        0.0986
     33 N         151.3568  142.8587  153.8051 N.ar    1  UNL1       -0.2423
     34 C         150.7857  141.9008  154.8082 C.ar    1  UNL1        0.0986
     35 C         149.2990  141.7518  154.9411 C.ar    1  UNL1        0.0181
@<TRIPOS>BOND
     1    17    18    1
     2    18    19   ar
     3    19    20   ar
     4    20    21   ar
     5    21    22   ar
     6    22    10    1
     7    10    11   ar
     8    11    12   ar
     9    12    13   ar
    10    13     1    1
    11     1     2    2
    12     2     3    1
    13     3     4    2
    14     4     5    1
    15     5    25    1
    16    25    26    2
    17    25    27   am
    18    27    29    1
    19    29    30    1
    20    30    31   ar
    21    31    32   ar
    22    32    33   ar
    23    33    34   ar
    24    34    35   ar
    25     5     6    2
    26     6     7    1
    27     7     8    2
    28     8     9    1
    29    13    14   ar
    30    14    15    1
    31    14    16   ar
    32    22    23   ar
    33    23    24    2
    34    23    18   ar
    35    16    10   ar
    36     9     1    1
    37     8     4    1
    38    35    30   ar
    39    27    28    1
