@<TRIPOS>MOLECULE
*****
 22 24 0 0 0
SMALL
GASTEIGER

@<TRIPOS>ATOM
      1 C         138.4155  140.3735  165.2594 C.2     1  UNL1       -0.0420
      2 C         139.5260  141.2452  165.7664 C.2     1  UNL1       -0.0240
      3 C         139.5439  142.4989  164.9431 C.ar    1  UNL1       -0.0077
      4 C         140.4193  143.7162  164.9872 C.ar    1  UNL1        0.0017
      5 C         140.1953  144.8366  164.0155 C.ar    1  UNL1        0.0296
      6 C         139.0959  144.7398  162.9996 C.ar    1  UNL1        0.1398
      7 F         138.8719  145.8603  162.0278 F       1  UNL1       -0.2042
      8 C         138.2205  143.5226  162.9555 C.ar    1  UNL1        0.0257
      9 C         138.4446  142.4021  163.9273 C.ar    1  UNL1       -0.0162
     10 C         137.7472  141.0885  164.1228 C.3     1  UNL1        0.0481
     11 C         138.0394  139.0238  165.7950 C.3     1  UNL1        0.0394
     12 C         138.7885  137.8039  165.3472 C.3     1  UNL1        0.0765
     13 C         141.1124  137.9750  164.1982 C.3     1  UNL1        0.0897
     14 N         139.6208  137.8505  164.1001 N.3     1  UNL1       -0.2700
     15 C         138.9614  137.7726  162.7551 C.3     1  UNL1        0.0897
     16 C         140.4554  140.9202  166.8981 C.3     1  UNL1        0.0730
     17 C         140.2538  141.5578  168.2409 C.ar    1  UNL1        0.0825
     18 C         139.6244  140.7759  169.3555 C.ar    1  UNL1        0.1139
     19 N         139.4229  141.4134  170.6982 N.ar    1  UNL1       -0.2394
     20 C         139.8508  142.8329  170.9263 C.ar    1  UNL1        0.1195
     21 C         140.4802  143.6148  169.8116 C.ar    1  UNL1        0.1191
     22 N         140.6817  142.9773  168.4689 N.ar    1  UNL1       -0.2446
@<TRIPOS>BOND
     1    13    14    1
     2    14    15    1
     3    14    12    1
     4    12    11    1
     5    11     1    1
     6     1     2    2
     7     2    16    1
     8    16    17    1
     9    17    18   ar
    10    18    19   ar
    11    19    20   ar
    12    20    21   ar
    13    21    22   ar
    14     2     3    1
    15     3     4   ar
    16     4     5   ar
    17     5     6   ar
    18     6     7    1
    19     6     8   ar
    20     8     9   ar
    21     9    10    1
    22    10     1    1
    23    22    17   ar
    24     9     3   ar
@<TRIPOS>MOLECULE
*****
 22 24 0 0 0
SMALL
GASTEIGER

@<TRIPOS>ATOM
      1 C         142.1506  138.1794  163.9316 C.2     1  UNL1       -0.0420
      2 C         143.2184  138.8141  164.7724 C.2     1  UNL1       -0.0240
      3 C         143.9136  139.8475  163.9365 C.ar    1  UNL1       -0.0077
      4 C         145.0452  140.7854  164.2360 C.ar    1  UNL1        0.0017
      5 C         145.5388  141.7272  163.1780 C.ar    1  UNL1        0.0296
      6 C         144.9007  141.7311  161.8205 C.ar    1  UNL1        0.1398
      7 F         145.3943  142.6730  160.7625 F       1  UNL1       -0.2042
      8 C         143.7691  140.7933  161.5210 C.ar    1  UNL1        0.0257
      9 C         143.2755  139.8514  162.5790 C.ar    1  UNL1       -0.0162
     10 C         142.1860  138.8205  162.5760 C.3     1  UNL1        0.0481
     11 C         141.2123  137.0941  164.3695 C.3     1  UNL1        0.0394
     12 C         139.8373  137.4430  164.8569 C.3     1  UNL1        0.0765
     13 C         138.4739  139.6388  164.5928 C.3     1  UNL1        0.0897
     14 N         138.9528  138.3318  164.0337 N.3     1  UNL1       -0.2700
     15 C         138.5472  137.9136  162.6515 C.3     1  UNL1        0.0897
     16 C         143.5353  138.4750  166.1988 C.3     1  UNL1        0.0730
     17 C         142.7259  139.0751  167.3100 C.ar    1  UNL1        0.0825
     18 C         141.5409  139.9385  166.9931 C.ar    1  UNL1        0.1139
     19 N         140.7315  140.5386  168.1042 N.ar    1  UNL1       -0.2394
     20 C         141.1070  140.2753  169.5324 C.ar    1  UNL1        0.1195
     21 C         142.2919  139.4119  169.8493 C.ar    1  UNL1        0.1191
     22 N         143.1014  138.8118  168.7382 N.ar    1  UNL1       -0.2446
@<TRIPOS>BOND
     1    13    14    1
     2    14    15    1
     3    14    12    1
     4    12    11    1
     5    11     1    1
     6     1     2    2
     7     2    16    1
     8    16    17    1
     9    17    18   ar
    10    18    19   ar
    11    19    20   ar
    12    20    21   ar
    13    21    22   ar
    14     2     3    1
    15     3     4   ar
    16     4     5   ar
    17     5     6   ar
    18     6     7    1
    19     6     8   ar
    20     8     9   ar
    21     9    10    1
    22    10     1    1
    23    22    17   ar
    24     9     3   ar
@<TRIPOS>MOLECULE
*****
 22 24 0 0 0
SMALL
GASTEIGER

@<TRIPOS>ATOM
      1 C         143.0563  141.2827  165.9519 C.2     1  UNL1       -0.0420
      2 C         142.1785  140.1595  166.4187 C.2     1  UNL1       -0.0240
      3 C         141.3497  140.6636  167.5628 C.ar    1  UNL1       -0.0077
      4 C         140.3093  140.0016  168.4168 C.ar    1  UNL1        0.0017
      5 C         139.6347  140.7743  169.5112 C.ar    1  UNL1        0.0296
      6 C         140.0004  142.2091  169.7516 C.ar    1  UNL1        0.1398
      7 F         139.3256  142.9818  170.8460 F       1  UNL1       -0.2042
      8 C         141.0407  142.8711  168.8976 C.ar    1  UNL1        0.0257
      9 C         141.7154  142.0984  167.8032 C.ar    1  UNL1       -0.0162
     10 C         142.7701  142.4809  166.8076 C.3     1  UNL1        0.0481
     11 C         144.0465  141.2188  164.8270 C.3     1  UNL1        0.0394
     12 C         144.8587  142.4292  164.4731 C.3     1  UNL1        0.0765
     13 C         144.4824  143.1787  162.0141 C.3     1  UNL1        0.0897
     14 N         144.3282  143.4258  163.4856 N.3     1  UNL1       -0.2700
     15 C         143.6435  144.6696  163.9695 C.3     1  UNL1        0.0897
     16 C         142.1366  138.7752  165.8425 C.3     1  UNL1        0.0730
     17 C         141.1547  138.4436  164.7580 C.ar    1  UNL1        0.0825
     18 C         141.6074  137.6951  163.5395 C.ar    1  UNL1        0.1139
     19 N         140.6256  137.3635  162.4551 N.ar    1  UNL1       -0.2394
     20 C         139.1910  137.7803  162.5893 C.ar    1  UNL1        0.1195
     21 C         138.7382  138.5288  163.8078 C.ar    1  UNL1        0.1191
     22 N         139.7200  138.8604  164.8922 N.ar    1  UNL1       -0.2446
@<TRIPOS>BOND
     1    13    14    1
     2    14    15    1
     3    14    12    1
     4    12    11    1
     5    11     1    1
     6     1     2    2
     7     2    16    1
     8    16    17    1
     9    17    18   ar
    10    18    19   ar
    11    19    20   ar
    12    20    21   ar
    13    21    22   ar
    14     2     3    1
    15     3     4   ar
    16     4     5   ar
    17     5     6   ar
    18     6     7    1
    19     6     8   ar
    20     8     9   ar
    21     9    10    1
    22    10     1    1
    23    22    17   ar
    24     9     3   ar
@<TRIPOS>MOLECULE
*****
 22 24 0 0 0
SMALL
GASTEIGER

@<TRIPOS>ATOM
      1 C         138.9962  139.5562  166.2364 C.2     1  UNL1       -0.0420
      2 C         139.9040  140.7374  166.0611 C.2     1  UNL1       -0.0240
      3 C         140.2065  141.2953  167.4202 C.ar    1  UNL1       -0.0077
      4 C         141.0452  142.4569  167.8644 C.ar    1  UNL1        0.0017
      5 C         141.1630  142.7820  169.3240 C.ar    1  UNL1        0.0296
      6 C         140.4422  141.9457  170.3393 C.ar    1  UNL1        0.1398
      7 F         140.5601  142.2709  171.7989 F       1  UNL1       -0.2042
      8 C         139.6035  140.7841  169.8951 C.ar    1  UNL1        0.0257
      9 C         139.4857  140.4589  168.4355 C.ar    1  UNL1       -0.0162
     10 C         138.7377  139.3841  167.7039 C.3     1  UNL1        0.0481
     11 C         138.4439  138.6978  165.1372 C.3     1  UNL1        0.0394
     12 C         139.2591  137.5641  164.5895 C.3     1  UNL1        0.0765
     13 C         139.0795  138.0365  162.0410 C.3     1  UNL1        0.0897
     14 N         139.9074  137.6886  163.2426 N.3     1  UNL1       -0.2700
     15 C         141.3835  137.4653  163.0972 C.3     1  UNL1        0.0897
     16 C         140.4189  141.2676  164.7558 C.3     1  UNL1        0.0730
     17 C         139.7428  142.4361  164.1018 C.ar    1  UNL1        0.0825
     18 C         138.3795  142.2722  163.4981 C.ar    1  UNL1        0.1139
     19 N         137.7034  143.4406  162.8441 N.ar    1  UNL1       -0.2394
     20 C         138.3906  144.7729  162.7939 C.ar    1  UNL1        0.1195
     21 C         139.7539  144.9368  163.3977 C.ar    1  UNL1        0.1191
     22 N         140.4300  143.7685  164.0516 N.ar    1  UNL1       -0.2446
@<TRIPOS>BOND
     1    13    14    1
     2    14    15    1
     3    14    12    1
     4    12    11    1
     5    11     1    1
     6     1     2    2
     7     2    16    1
     8    16    17    1
     9    17    18   ar
    10    18    19   ar
    11    19    20   ar
    12    20    21   ar
    13    21    22   ar
    14     2     3    1
    15     3     4   ar
    16     4     5   ar
    17     5     6   ar
    18     6     7    1
    19     6     8   ar
    20     8     9   ar
    21     9    10    1
    22    10     1    1
    23    22    17   ar
    24     9     3   ar
@<TRIPOS>MOLECULE
*****
 22 24 0 0 0
SMALL
GASTEIGER

@<TRIPOS>ATOM
      1 C         141.6842  139.3491  165.4922 C.2     1  UNL1       -0.0420
      2 C         140.3383  139.6148  166.0987 C.2     1  UNL1       -0.0240
      3 C         140.5373  139.9167  167.5545 C.ar    1  UNL1       -0.0077
      4 C         139.5708  140.2534  168.6510 C.ar    1  UNL1        0.0017
      5 C         140.0732  140.5110  170.0407 C.ar    1  UNL1        0.0296
      6 C         141.5421  140.4319  170.3338 C.ar    1  UNL1        0.1398
      7 F         142.0445  140.6896  171.7236 F       1  UNL1       -0.2042
      8 C         142.5087  140.0952  169.2373 C.ar    1  UNL1        0.0257
      9 C         142.0063  139.8376  167.8477 C.ar    1  UNL1       -0.0162
     10 C         142.7151  139.4868  166.5731 C.3     1  UNL1        0.0481
     11 C         141.9522  139.0059  164.0568 C.3     1  UNL1        0.0394
     12 C         143.3466  138.6779  163.6118 C.3     1  UNL1        0.0765
     13 C         144.1519  140.0971  161.5899 C.3     1  UNL1        0.0897
     14 N         144.2267  139.7540  163.0483 N.3     1  UNL1       -0.2700
     15 C         145.1816  140.4870  163.9432 C.3     1  UNL1        0.0897
     16 C         139.0241  139.5840  165.3764 C.3     1  UNL1        0.0730
     17 C         138.5628  140.7862  164.6069 C.ar    1  UNL1        0.0825
     18 C         137.7531  140.6109  163.3564 C.ar    1  UNL1        0.1139
     19 N         137.2918  141.8130  162.5869 N.ar    1  UNL1       -0.2394
     20 C         137.6403  143.1904  163.0679 C.ar    1  UNL1        0.1195
     21 C         138.4501  143.3656  164.3183 C.ar    1  UNL1        0.1191
     22 N         138.9113  142.1636  165.0878 N.ar    1  UNL1       -0.2446
@<TRIPOS>BOND
     1    13    14    1
     2    14    15    1
     3    14    12    1
     4    12    11    1
     5    11     1    1
     6     1     2    2
     7     2    16    1
     8    16    17    1
     9    17    18   ar
    10    18    19   ar
    11    19    20   ar
    12    20    21   ar
    13    21    22   ar
    14     2     3    1
    15     3     4   ar
    16     4     5   ar
    17     5     6   ar
    18     6     7    1
    19     6     8   ar
    20     8     9   ar
    21     9    10    1
    22    10     1    1
    23    22    17   ar
    24     9     3   ar
@<TRIPOS>MOLECULE
*****
 22 24 0 0 0
SMALL
GASTEIGER

@<TRIPOS>ATOM
      1 C         142.2128  141.5386  165.2253 C.2     1  UNL1       -0.0420
      2 C         140.9778  142.1655  165.8013 C.2     1  UNL1       -0.0240
      3 C         141.2527  142.4960  167.2384 C.ar    1  UNL1       -0.0077
      4 C         140.4052  143.1271  168.3030 C.ar    1  UNL1        0.0017
      5 C         140.9627  143.3357  169.6798 C.ar    1  UNL1        0.0296
      6 C         142.3677  142.9131  169.9920 C.ar    1  UNL1        0.1398
      7 F         142.9252  143.1217  171.3689 F       1  UNL1       -0.2042
      8 C         143.2152  142.2820  168.9274 C.ar    1  UNL1        0.0257
      9 C         142.6577  142.0734  167.5506 C.ar    1  UNL1       -0.0162
     10 C         143.2510  141.4817  166.3065 C.3     1  UNL1        0.0481
     11 C         142.3802  141.0538  163.8158 C.3     1  UNL1        0.0394
     12 C         142.8805  141.9892  162.7553 C.3     1  UNL1        0.0765
     13 C         144.2684  144.1841  162.8330 C.3     1  UNL1        0.0897
     14 N         144.1953  142.6892  162.9322 N.3     1  UNL1       -0.2700
     15 C         145.4370  141.8942  163.2082 C.3     1  UNL1        0.0897
     16 C         139.6933  142.4176  165.0688 C.3     1  UNL1        0.0730
     17 C         139.6058  143.5337  164.0704 C.ar    1  UNL1        0.0825
     18 C         138.3515  143.7284  163.2711 C.ar    1  UNL1        0.1139
     19 N         138.2640  144.8445  162.2728 N.ar    1  UNL1       -0.2394
     20 C         139.4308  145.7658  162.0738 C.ar    1  UNL1        0.1195
     21 C         140.6851  145.5711  162.8730 C.ar    1  UNL1        0.1191
     22 N         140.7727  144.4551  163.8714 N.ar    1  UNL1       -0.2446
@<TRIPOS>BOND
     1    13    14    1
     2    14    15    1
     3    14    12    1
     4    12    11    1
     5    11     1    1
     6     1     2    2
     7     2    16    1
     8    16    17    1
     9    17    18   ar
    10    18    19   ar
    11    19    20   ar
    12    20    21   ar
    13    21    22   ar
    14     2     3    1
    15     3     4   ar
    16     4     5   ar
    17     5     6   ar
    18     6     7    1
    19     6     8   ar
    20     8     9   ar
    21     9    10    1
    22    10     1    1
    23    22    17   ar
    24     9     3   ar
@<TRIPOS>MOLECULE
*****
 22 24 0 0 0
SMALL
GASTEIGER

@<TRIPOS>ATOM
      1 C         140.1819  139.9410  167.7096 C.2     1  UNL1       -0.0420
      2 C         139.8650  139.8947  166.2441 C.2     1  UNL1       -0.0240
      3 C         141.1463  139.6608  165.5000 C.ar    1  UNL1       -0.0077
      4 C         141.4466  139.5246  164.0367 C.ar    1  UNL1        0.0017
      5 C         142.8557  139.2902  163.5790 C.ar    1  UNL1        0.0296
      6 C         143.9644  139.1920  164.5845 C.ar    1  UNL1        0.1398
      7 F         145.3735  138.9576  164.1267 F       1  UNL1       -0.2042
      8 C         143.6641  139.3282  166.0478 C.ar    1  UNL1        0.0257
      9 C         142.2550  139.5626  166.5055 C.ar    1  UNL1       -0.0162
     10 C         141.6589  139.7358  167.8711 C.3     1  UNL1        0.0481
     11 C         139.1949  140.1550  168.8187 C.3     1  UNL1        0.0394
     12 C         139.6760  140.3128  170.2306 C.3     1  UNL1        0.0765
     13 C         139.9034  142.8928  170.4348 C.3     1  UNL1        0.0897
     14 N         140.4777  141.5194  170.6194 N.3     1  UNL1       -0.2700
     15 C         141.8537  141.3528  171.1928 C.3     1  UNL1        0.0897
     16 C         138.5056  140.0542  165.6305 C.3     1  UNL1        0.0730
     17 C         138.2614  141.1345  164.6188 C.ar    1  UNL1        0.0825
     18 C         137.6275  140.7989  163.3014 C.ar    1  UNL1        0.1139
     19 N         137.3833  141.8791  162.2898 N.ar    1  UNL1       -0.2394
     20 C         137.7730  143.2949  162.5955 C.ar    1  UNL1        0.1195
     21 C         138.4069  143.6305  163.9129 C.ar    1  UNL1        0.1191
     22 N         138.6511  142.5503  164.9246 N.ar    1  UNL1       -0.2446
@<TRIPOS>BOND
     1    13    14    1
     2    14    15    1
     3    14    12    1
     4    12    11    1
     5    11     1    1
     6     1     2    2
     7     2    16    1
     8    16    17    1
     9    17    18   ar
    10    18    19   ar
    11    19    20   ar
    12    20    21   ar
    13    21    22   ar
    14     2     3    1
    15     3     4   ar
    16     4     5   ar
    17     5     6   ar
    18     6     7    1
    19     6     8   ar
    20     8     9   ar
    21     9    10    1
    22    10     1    1
    23    22    17   ar
    24     9     3   ar
@<TRIPOS>MOLECULE
*****
 22 24 0 0 0
SMALL
GASTEIGER

@<TRIPOS>ATOM
      1 C         141.4809  139.5069  166.2336 C.2     1  UNL1       -0.0420
      2 C         140.3656  140.4302  166.6256 C.2     1  UNL1       -0.0240
      3 C         140.8757  141.3429  167.7012 C.ar    1  UNL1       -0.0077
      4 C         140.2224  142.4546  168.4674 C.ar    1  UNL1        0.0017
      5 C         140.9996  143.2071  169.5064 C.ar    1  UNL1        0.0296
      6 C         142.4302  142.8478  169.7792 C.ar    1  UNL1        0.1398
      7 F         143.2074  143.6003  170.8183 F       1  UNL1       -0.2042
      8 C         143.0835  141.7360  169.0130 C.ar    1  UNL1        0.0257
      9 C         142.3063  140.9836  167.9740 C.ar    1  UNL1       -0.0162
     10 C         142.6802  139.8489  167.0670 C.3     1  UNL1        0.0481
     11 C         141.4093  138.4305  165.1913 C.3     1  UNL1        0.0394
     12 C         141.4852  138.7889  163.7367 C.3     1  UNL1        0.0765
     13 C         139.2113  137.6302  163.2498 C.3     1  UNL1        0.0897
     14 N         140.2884  138.5961  162.8533 N.3     1  UNL1       -0.2700
     15 C         140.1685  139.3691  161.5735 C.3     1  UNL1        0.0897
     16 C         138.9829  140.4394  166.0440 C.3     1  UNL1        0.0730
     17 C         138.6532  141.3618  164.9079 C.ar    1  UNL1        0.0825
     18 C         137.6806  140.9311  163.8503 C.ar    1  UNL1        0.1139
     19 N         137.3508  141.8534  162.7143 N.ar    1  UNL1       -0.2394
     20 C         137.9936  143.2064  162.6360 C.ar    1  UNL1        0.1195
     21 C         138.9662  143.6371  163.6936 C.ar    1  UNL1        0.1191
     22 N         139.2960  142.7148  164.8296 N.ar    1  UNL1       -0.2446
@<TRIPOS>BOND
     1    13    14    1
     2    14    15    1
     3    14    12    1
     4    12    11    1
     5    11     1    1
     6     1     2    2
     7     2    16    1
     8    16    17    1
     9    17    18   ar
    10    18    19   ar
    11    19    20   ar
    12    20    21   ar
    13    21    22   ar
    14     2     3    1
    15     3     4   ar
    16     4     5   ar
    17     5     6   ar
    18     6     7    1
    19     6     8   ar
    20     8     9   ar
    21     9    10    1
    22    10     1    1
    23    22    17   ar
    24     9     3   ar
@<TRIPOS>MOLECULE
*****
 22 24 0 0 0
SMALL
GASTEIGER

@<TRIPOS>ATOM
      1 C         143.2753  141.1872  165.4758 C.2     1  UNL1       -0.0420
      2 C         142.8797  139.9338  166.1986 C.2     1  UNL1       -0.0240
      3 C         142.6360  140.2849  167.6364 C.ar    1  UNL1       -0.0077
      4 C         142.2226  139.4557  168.8160 C.ar    1  UNL1        0.0017
      5 C         142.0543  140.0970  170.1614 C.ar    1  UNL1        0.0296
      6 C         142.2993  141.5675  170.3273 C.ar    1  UNL1        0.1398
      7 F         142.1309  142.2088  171.6729 F       1  UNL1       -0.2042
      8 C         142.7127  142.3968  169.1478 C.ar    1  UNL1        0.0257
      9 C         142.8810  141.7555  167.8023 C.ar    1  UNL1       -0.0162
     10 C         143.2761  142.3131  166.4670 C.3     1  UNL1        0.0481
     11 C         143.6112  141.2957  164.0180 C.3     1  UNL1        0.0394
     12 C         142.7110  142.0635  163.0960 C.3     1  UNL1        0.0765
     13 C         141.9748  140.7284  160.9923 C.3     1  UNL1        0.0897
     14 N         141.6466  141.3474  162.3187 N.3     1  UNL1       -0.2700
     15 C         140.2541  141.2502  162.8676 C.3     1  UNL1        0.0897
     16 C         142.7505  138.5687  165.5903 C.3     1  UNL1        0.0730
     17 C         141.5745  138.2450  164.7171 C.ar    1  UNL1        0.0825
     18 C         141.7925  137.7689  163.3115 C.ar    1  UNL1        0.1139
     19 N         140.6167  137.4452  162.4383 N.ar    1  UNL1       -0.2394
     20 C         139.2227  137.5975  162.9709 C.ar    1  UNL1        0.1195
     21 C         139.0046  138.0735  164.3765 C.ar    1  UNL1        0.1191
     22 N         140.1805  138.3972  165.2497 N.ar    1  UNL1       -0.2446
@<TRIPOS>BOND
     1    13    14    1
     2    14    15    1
     3    14    12    1
     4    12    11    1
     5    11     1    1
     6     1     2    2
     7     2    16    1
     8    16    17    1
     9    17    18   ar
    10    18    19   ar
    11    19    20   ar
    12    20    21   ar
    13    21    22   ar
    14     2     3    1
    15     3     4   ar
    16     4     5   ar
    17     5     6   ar
    18     6     7    1
    19     6     8   ar
    20     8     9   ar
    21     9    10    1
    22    10     1    1
    23    22    17   ar
    24     9     3   ar
