@<TRIPOS>MOLECULE
*****
 31 35 0 0 0
SMALL
GASTEIGER

@<TRIPOS>ATOM
      1 C         143.5929  141.8976  161.6794 C.ar    1  UNL1        0.1353
      2 C         142.6438  141.6729  162.8190 C.ar    1  UNL1        0.0346
      3 C         143.1725  141.3073  164.1744 C.ar    1  UNL1        0.0058
      4 C         144.6502  141.1667  164.3900 C.ar    1  UNL1        0.0208
      5 C         145.5993  141.3914  163.2504 C.ar    1  UNL1        0.1003
      6 N         145.0706  141.7569  161.8951 N.ar    1  UNL1       -0.2290
      7 O         142.5420  144.6618  161.1748 O.2     1  UNL1       -0.2522
      8 C         142.5387  143.6453  160.0718 C.2     1  UNL1        0.3089
      9 N         143.0642  142.2631  160.3241 N.am    1  UNL1       -0.2535
     10 N         142.0100  144.0109  158.7165 N.am    1  UNL1       -0.2588
     11 C         141.4845  145.3930  158.4642 C.3     1  UNL1        0.1270
     12 C         140.9558  145.7585  157.1089 C.3     1  UNL1        0.1637
     13 O         140.9525  144.7419  156.0059 O.3     1  UNL1       -0.3501
     14 C         141.4780  143.3598  156.2582 C.3     1  UNL1        0.1637
     15 C         142.0067  142.9943  157.6135 C.3     1  UNL1        0.1270
     16 H         143.0620  141.5959  159.6002 H       1  UNL1        0.1578
     17 C         142.2234  141.0825  165.3140 C.ar    1  UNL1        0.0188
     18 C         142.3430  141.6684  166.6897 C.ar    1  UNL1        0.0758
     19 N         141.1816  141.1804  167.5039 N.ar    1  UNL1       -0.3265
     20 C         140.3443  140.2928  166.6314 C.ar    1  UNL1        0.0793
     21 C         139.0787  139.5319  166.8946 C.ar    1  UNL1        0.1160
     22 N         138.4570  138.7106  165.8043 N.ar    1  UNL1       -0.2408
     23 C         139.1009  138.6501  164.4508 C.ar    1  UNL1        0.0990
     24 C         140.3665  139.4110  164.1877 C.ar    1  UNL1        0.0222
     25 C         140.9881  140.2324  165.2780 C.ar    1  UNL1        0.0203
     26 C         140.9059  141.5202  168.9386 C.3     1  UNL1        0.0906
     27 C         141.3427  140.5859  170.0280 C.3     1  UNL1        0.0547
     28 C         141.0670  140.9256  171.4627 C.3     1  UNL1        0.1441
     29 O         140.3546  142.1997  171.8082 O.3     1  UNL1       -0.3536
     30 C         139.9179  143.1339  170.7190 C.3     1  UNL1        0.1441
     31 C         140.1936  142.7941  169.2842 C.3     1  UNL1        0.0547
@<TRIPOS>BOND
     1     7     8    2
     2     8     9   am
     3     9     1    1
     4     1     2   ar
     5     2     3   ar
     6     3    17    1
     7    17    18   ar
     8    18    19   ar
     9    19    26    1
    10    26    27    1
    11    27    28    1
    12    28    29    1
    13    29    30    1
    14    30    31    1
    15    19    20   ar
    16    20    21   ar
    17    21    22   ar
    18    22    23   ar
    19    23    24   ar
    20    24    25   ar
    21     3     4   ar
    22     4     5   ar
    23     5     6   ar
    24     8    10   am
    25    10    11    1
    26    11    12    1
    27    12    13    1
    28    13    14    1
    29    14    15    1
    30     6     1   ar
    31    15    10    1
    32    25    17   ar
    33    31    26    1
    34    25    20   ar
    35     9    16    1
@<TRIPOS>MOLECULE
*****
 31 35 0 0 0
SMALL
GASTEIGER

@<TRIPOS>ATOM
      1 C         140.4760  143.6444  161.0471 C.ar    1  UNL1        0.1353
      2 C         140.5571  142.9070  162.3508 C.ar    1  UNL1        0.0346
      3 C         139.8919  143.4682  163.5726 C.ar    1  UNL1        0.0058
      4 C         139.1457  144.7668  163.4905 C.ar    1  UNL1        0.0208
      5 C         139.0647  145.5042  162.1868 C.ar    1  UNL1        0.1003
      6 N         139.7298  144.9430  160.9651 N.ar    1  UNL1       -0.2290
      7 O         143.4652  143.7114  160.8023 O.2     1  UNL1       -0.2522
      8 C         142.6358  143.1166  159.7031 C.2     1  UNL1        0.3089
      9 N         141.1412  143.0831  159.8254 N.am    1  UNL1       -0.2535
     10 N         143.3011  142.5553  158.4813 N.am    1  UNL1       -0.2588
     11 C         144.7957  142.5888  158.3590 C.3     1  UNL1        0.1270
     12 C         145.4609  142.0276  157.1373 C.3     1  UNL1        0.1637
     13 O         144.6315  141.4328  156.0381 O.3     1  UNL1       -0.3501
     14 C         143.1369  141.3993  156.1604 C.3     1  UNL1        0.1637
     15 C         142.4717  141.9606  157.3821 C.3     1  UNL1        0.1270
     16 H         140.5968  142.6928  159.1039 H       1  UNL1        0.1578
     17 C         139.9729  142.7308  164.8763 C.ar    1  UNL1        0.0188
     18 C         140.6234  143.2297  166.1325 C.ar    1  UNL1        0.0758
     19 N         140.4702  142.1722  167.1852 N.ar    1  UNL1       -0.3265
     20 C         139.7250  141.0197  166.5796 C.ar    1  UNL1        0.0793
     21 C         139.2867  139.7006  167.1433 C.ar    1  UNL1        0.1160
     22 N         138.5410  138.7267  166.2799 N.ar    1  UNL1       -0.2408
     23 C         138.2337  139.0720  164.8529 C.ar    1  UNL1        0.0990
     24 C         138.6720  140.3911  164.2892 C.ar    1  UNL1        0.0222
     25 C         139.4177  141.3650  165.1526 C.ar    1  UNL1        0.0203
     26 C         140.9737  142.2529  168.5958 C.3     1  UNL1        0.0906
     27 C         142.4297  142.4993  168.8595 C.3     1  UNL1        0.0547
     28 C         142.9332  142.5801  170.2702 C.3     1  UNL1        0.1441
     29 O         141.9809  142.4144  171.4171 O.3     1  UNL1       -0.3536
     30 C         140.5249  142.1680  171.1534 C.3     1  UNL1        0.1441
     31 C         140.0214  142.0873  169.7428 C.3     1  UNL1        0.0547
@<TRIPOS>BOND
     1     7     8    2
     2     8     9   am
     3     9     1    1
     4     1     2   ar
     5     2     3   ar
     6     3    17    1
     7    17    18   ar
     8    18    19   ar
     9    19    26    1
    10    26    27    1
    11    27    28    1
    12    28    29    1
    13    29    30    1
    14    30    31    1
    15    19    20   ar
    16    20    21   ar
    17    21    22   ar
    18    22    23   ar
    19    23    24   ar
    20    24    25   ar
    21     3     4   ar
    22     4     5   ar
    23     5     6   ar
    24     8    10   am
    25    10    11    1
    26    11    12    1
    27    12    13    1
    28    13    14    1
    29    14    15    1
    30     6     1   ar
    31    15    10    1
    32    25    17   ar
    33    31    26    1
    34    25    20   ar
    35     9    16    1
@<TRIPOS>MOLECULE
*****
 31 35 0 0 0
SMALL
GASTEIGER

@<TRIPOS>ATOM
      1 C         142.7787  143.6156  160.7531 C.ar    1  UNL1        0.1353
      2 C         142.7274  142.8498  162.0419 C.ar    1  UNL1        0.0346
      3 C         141.7398  143.2338  163.1037 C.ar    1  UNL1        0.0058
      4 C         140.8037  144.3836  162.8767 C.ar    1  UNL1        0.0208
      5 C         140.8550  145.1494  161.5879 C.ar    1  UNL1        0.1003
      6 N         141.8425  144.7654  160.5261 N.ar    1  UNL1       -0.2290
      7 O         142.2320  141.2600  158.9777 O.2     1  UNL1       -0.2522
      8 C         143.4928  142.0537  158.8037 C.2     1  UNL1        0.3089
      9 N         143.7662  143.2316  159.6914 N.am    1  UNL1       -0.2535
     10 N         144.4804  141.6696  157.7419 N.am    1  UNL1       -0.2588
     11 C         144.2070  140.4918  156.8542 C.3     1  UNL1        0.1270
     12 C         145.1945  140.1078  155.7925 C.3     1  UNL1        0.1637
     13 O         146.4553  140.9015  155.6184 O.3     1  UNL1       -0.3501
     14 C         146.7287  142.0793  156.5061 C.3     1  UNL1        0.1637
     15 C         145.7412  142.4633  157.5678 C.3     1  UNL1        0.1270
     16 H         144.5937  143.7525  159.5771 H       1  UNL1        0.1578
     17 C         141.6885  142.4680  164.3925 C.ar    1  UNL1        0.0188
     18 C         140.8594  142.8168  165.5929 C.ar    1  UNL1        0.0758
     19 N         141.1158  141.7833  166.6493 N.ar    1  UNL1       -0.3265
     20 C         142.1033  140.7958  166.1019 C.ar    1  UNL1        0.0793
     21 C         142.7260  139.5659  166.6933 C.ar    1  UNL1        0.1160
     22 N         143.7025  138.7593  165.8898 N.ar    1  UNL1       -0.2408
     23 C         144.0565  139.1825  164.4949 C.ar    1  UNL1        0.0990
     24 C         143.4338  140.4124  163.9035 C.ar    1  UNL1        0.0222
     25 C         142.4573  141.2190  164.7070 C.ar    1  UNL1        0.0203
     26 C         140.4939  141.7441  168.0138 C.3     1  UNL1        0.0906
     27 C         139.7611  140.5169  168.4691 C.3     1  UNL1        0.0547
     28 C         139.1392  140.4777  169.8335 C.3     1  UNL1        0.1441
     29 O         139.2500  141.6657  170.7427 O.3     1  UNL1       -0.3536
     30 C         139.9828  142.8928  170.2874 C.3     1  UNL1        0.1441
     31 C         140.6047  142.9319  168.9229 C.3     1  UNL1        0.0547
@<TRIPOS>BOND
     1     7     8    2
     2     8     9   am
     3     9     1    1
     4     1     2   ar
     5     2     3   ar
     6     3    17    1
     7    17    18   ar
     8    18    19   ar
     9    19    26    1
    10    26    27    1
    11    27    28    1
    12    28    29    1
    13    29    30    1
    14    30    31    1
    15    19    20   ar
    16    20    21   ar
    17    21    22   ar
    18    22    23   ar
    19    23    24   ar
    20    24    25   ar
    21     3     4   ar
    22     4     5   ar
    23     5     6   ar
    24     8    10   am
    25    10    11    1
    26    11    12    1
    27    12    13    1
    28    13    14    1
    29    14    15    1
    30     6     1   ar
    31    15    10    1
    32    25    17   ar
    33    31    26    1
    34    25    20   ar
    35     9    16    1
@<TRIPOS>MOLECULE
*****
 31 35 0 0 0
SMALL
GASTEIGER

@<TRIPOS>ATOM
      1 C         139.2987  143.6451  160.8633 C.ar    1  UNL1        0.1353
      2 C         139.6665  142.8861  162.1037 C.ar    1  UNL1        0.0346
      3 C         140.3259  143.5954  163.2492 C.ar    1  UNL1        0.0058
      4 C         140.6174  145.0637  163.1542 C.ar    1  UNL1        0.0208
      5 C         140.2495  145.8227  161.9138 C.ar    1  UNL1        0.1003
      6 N         139.5902  145.1134  160.7683 N.ar    1  UNL1       -0.2290
      7 O         140.8031  141.5508  159.3302 O.2     1  UNL1       -0.2522
      8 C         139.3915  141.8885  158.9513 C.2     1  UNL1        0.3089
      9 N         138.6393  142.9357  159.7179 N.am    1  UNL1       -0.2535
     10 N         138.7322  141.1791  157.8058 N.am    1  UNL1       -0.2588
     11 C         139.4844  140.1319  157.0393 C.3     1  UNL1        0.1270
     12 C         138.8251  139.4225  155.8939 C.3     1  UNL1        0.1637
     13 O         137.4136  139.7602  155.5150 O.3     1  UNL1       -0.3501
     14 C         136.6613  140.8074  156.2816 C.3     1  UNL1        0.1637
     15 C         137.3207  141.5168  157.4269 C.3     1  UNL1        0.1270
     16 H         137.7129  143.1574  159.4692 H       1  UNL1        0.1578
     17 C         140.6938  142.8364  164.4896 C.ar    1  UNL1        0.0188
     18 C         140.0671  143.0012  165.8424 C.ar    1  UNL1        0.0758
     19 N         140.7390  142.0459  166.7838 N.ar    1  UNL1       -0.3265
     20 C         141.7808  141.2909  166.0128 C.ar    1  UNL1        0.0793
     21 C         142.7513  140.2216  166.4187 C.ar    1  UNL1        0.1160
     22 N         143.6938  139.6409  165.4066 N.ar    1  UNL1       -0.2408
     23 C         143.6659  140.1294  163.9887 C.ar    1  UNL1        0.0990
     24 C         142.6954  141.1987  163.5828 C.ar    1  UNL1        0.0222
     25 C         141.7529  141.7794  164.5949 C.ar    1  UNL1        0.0203
     26 C         140.4242  141.8757  168.2405 C.3     1  UNL1        0.0906
     27 C         140.3951  143.0711  169.1463 C.3     1  UNL1        0.0547
     28 C         140.0804  142.9008  170.6030 C.3     1  UNL1        0.1441
     29 O         139.7948  141.5352  171.1539 O.3     1  UNL1       -0.3536
     30 C         139.8239  140.3399  170.2482 C.3     1  UNL1        0.1441
     31 C         140.1386  140.5102  168.7915 C.3     1  UNL1        0.0547
@<TRIPOS>BOND
     1     7     8    2
     2     8     9   am
     3     9     1    1
     4     1     2   ar
     5     2     3   ar
     6     3    17    1
     7    17    18   ar
     8    18    19   ar
     9    19    26    1
    10    26    27    1
    11    27    28    1
    12    28    29    1
    13    29    30    1
    14    30    31    1
    15    19    20   ar
    16    20    21   ar
    17    21    22   ar
    18    22    23   ar
    19    23    24   ar
    20    24    25   ar
    21     3     4   ar
    22     4     5   ar
    23     5     6   ar
    24     8    10   am
    25    10    11    1
    26    11    12    1
    27    12    13    1
    28    13    14    1
    29    14    15    1
    30     6     1   ar
    31    15    10    1
    32    25    17   ar
    33    31    26    1
    34    25    20   ar
    35     9    16    1
@<TRIPOS>MOLECULE
*****
 31 35 0 0 0
SMALL
GASTEIGER

@<TRIPOS>ATOM
      1 C         143.6432  140.7434  161.6332 C.ar    1  UNL1        0.1353
      2 C         142.6935  140.6138  162.7870 C.ar    1  UNL1        0.0346
      3 C         143.1613  140.9121  164.1807 C.ar    1  UNL1        0.0058
      4 C         144.5788  141.3400  164.4204 C.ar    1  UNL1        0.0208
      5 C         145.5285  141.4697  163.2666 C.ar    1  UNL1        0.1003
      6 N         145.0607  141.1714  161.8730 N.ar    1  UNL1       -0.2290
      7 O         143.5782  137.9110  160.6470 O.2     1  UNL1       -0.2522
      8 C         143.1428  139.0289  159.7465 C.2     1  UNL1        0.3089
      9 N         143.1753  140.4452  160.2397 N.am    1  UNL1       -0.2535
     10 N         142.6749  138.7305  158.3529 N.am    1  UNL1       -0.2588
     11 C         142.6424  137.3142  157.8598 C.3     1  UNL1        0.1270
     12 C         142.1745  137.0159  156.4662 C.3     1  UNL1        0.1637
     13 O         141.7391  138.1338  155.5658 O.3     1  UNL1       -0.3501
     14 C         141.7716  139.5501  156.0589 C.3     1  UNL1        0.1637
     15 C         142.2395  139.8484  157.4525 C.3     1  UNL1        0.1270
     16 H         142.8895  141.1789  159.6487 H       1  UNL1        0.1578
     17 C         142.2116  140.7824  165.3345 C.ar    1  UNL1        0.0188
     18 C         142.3751  141.4121  166.6861 C.ar    1  UNL1        0.0758
     19 N         141.1962  141.0191  167.5262 N.ar    1  UNL1       -0.3265
     20 C         140.3042  140.1464  166.6938 C.ar    1  UNL1        0.0793
     21 C         139.0016  139.4662  166.9943 C.ar    1  UNL1        0.1160
     22 N         138.3265  138.6396  165.9403 N.ar    1  UNL1       -0.2408
     23 C         138.9541  138.4933  164.5858 C.ar    1  UNL1        0.0990
     24 C         140.2567  139.1735  164.2853 C.ar    1  UNL1        0.0222
     25 C         140.9318  140.0001  165.3393 C.ar    1  UNL1        0.0203
     26 C         140.9522  141.4271  168.9488 C.3     1  UNL1        0.0906
     27 C         140.1414  142.6529  169.2490 C.3     1  UNL1        0.0547
     28 C         139.8973  143.0609  170.6717 C.3     1  UNL1        0.1441
     29 O         140.4640  142.2431  171.7942 O.3     1  UNL1       -0.3536
     30 C         141.2748  141.0174  171.4940 C.3     1  UNL1        0.1441
     31 C         141.5189  140.6094  170.0713 C.3     1  UNL1        0.0547
@<TRIPOS>BOND
     1     7     8    2
     2     8     9   am
     3     9     1    1
     4     1     2   ar
     5     2     3   ar
     6     3    17    1
     7    17    18   ar
     8    18    19   ar
     9    19    26    1
    10    26    27    1
    11    27    28    1
    12    28    29    1
    13    29    30    1
    14    30    31    1
    15    19    20   ar
    16    20    21   ar
    17    21    22   ar
    18    22    23   ar
    19    23    24   ar
    20    24    25   ar
    21     3     4   ar
    22     4     5   ar
    23     5     6   ar
    24     8    10   am
    25    10    11    1
    26    11    12    1
    27    12    13    1
    28    13    14    1
    29    14    15    1
    30     6     1   ar
    31    15    10    1
    32    25    17   ar
    33    31    26    1
    34    25    20   ar
    35     9    16    1
@<TRIPOS>MOLECULE
*****
 31 35 0 0 0
SMALL
GASTEIGER

@<TRIPOS>ATOM
      1 C         143.0889  139.0083  159.2261 C.ar    1  UNL1        0.1353
      2 C         142.1686  139.2966  160.3750 C.ar    1  UNL1        0.0346
      3 C         142.1720  140.6524  161.0167 C.ar    1  UNL1        0.0058
      4 C         143.0955  141.7199  160.5095 C.ar    1  UNL1        0.0208
      5 C         144.0158  141.4317  159.3606 C.ar    1  UNL1        0.1003
      6 N         144.0125  140.0759  158.7189 N.ar    1  UNL1       -0.2290
      7 O         141.3540  138.4847  156.8354 O.2     1  UNL1       -0.2522
      8 C         142.2180  137.3907  157.3891 C.2     1  UNL1        0.3089
      9 N         143.0856  137.6525  158.5845 N.am    1  UNL1       -0.2535
     10 N         142.2146  136.0348  156.7474 N.am    1  UNL1       -0.2588
     11 C         141.3471  135.7730  155.5520 C.3     1  UNL1        0.1270
     12 C         141.3437  134.4172  154.9104 C.3     1  UNL1        0.1637
     13 O         142.2078  133.3233  155.4640 O.3     1  UNL1       -0.3501
     14 C         143.0753  133.5851  156.6594 C.3     1  UNL1        0.1637
     15 C         143.0787  134.9409  157.3010 C.3     1  UNL1        0.1270
     16 H         143.6527  136.9345  158.9479 H       1  UNL1        0.1578
     17 C         141.2517  140.9407  162.1657 C.ar    1  UNL1        0.0188
     18 C         140.9960  140.0403  163.3379 C.ar    1  UNL1        0.0758
     19 N         140.0118  140.7231  164.2407 N.ar    1  UNL1       -0.3265
     20 C         139.6592  142.0454  163.6265 C.ar    1  UNL1        0.0793
     21 C         138.7394  143.1443  164.0694 C.ar    1  UNL1        0.1160
     22 N         138.5858  144.3778  163.2297 N.ar    1  UNL1       -0.2408
     23 C         139.3521  144.5122  161.9473 C.ar    1  UNL1        0.0990
     24 C         140.2719  143.4133  161.5044 C.ar    1  UNL1        0.0222
     25 C         140.4255  142.1799  162.3441 C.ar    1  UNL1        0.0203
     26 C         139.4746  140.1791  165.5312 C.3     1  UNL1        0.0906
     27 C         140.0802  140.6065  166.8354 C.3     1  UNL1        0.0547
     28 C         139.5430  140.0625  168.1259 C.3     1  UNL1        0.1441
     29 O         138.4001  139.0912  168.1123 O.3     1  UNL1       -0.3536
     30 C         137.7945  138.6638  166.8083 C.3     1  UNL1        0.1441
     31 C         138.3317  139.2078  165.5178 C.3     1  UNL1        0.0547
@<TRIPOS>BOND
     1     7     8    2
     2     8     9   am
     3     9     1    1
     4     1     2   ar
     5     2     3   ar
     6     3    17    1
     7    17    18   ar
     8    18    19   ar
     9    19    26    1
    10    26    27    1
    11    27    28    1
    12    28    29    1
    13    29    30    1
    14    30    31    1
    15    19    20   ar
    16    20    21   ar
    17    21    22   ar
    18    22    23   ar
    19    23    24   ar
    20    24    25   ar
    21     3     4   ar
    22     4     5   ar
    23     5     6   ar
    24     8    10   am
    25    10    11    1
    26    11    12    1
    27    12    13    1
    28    13    14    1
    29    14    15    1
    30     6     1   ar
    31    15    10    1
    32    25    17   ar
    33    31    26    1
    34    25    20   ar
    35     9    16    1
@<TRIPOS>MOLECULE
*****
 31 35 0 0 0
SMALL
GASTEIGER

@<TRIPOS>ATOM
      1 C         141.7677  139.8988  161.0375 C.ar    1  UNL1        0.1353
      2 C         141.2938  140.2941  162.4046 C.ar    1  UNL1        0.0346
      3 C         141.8558  139.6154  163.6186 C.ar    1  UNL1        0.0058
      4 C         142.8917  138.5415  163.4653 C.ar    1  UNL1        0.0208
      5 C         143.3655  138.1461  162.0981 C.ar    1  UNL1        0.1003
      6 N         142.8036  138.8248  160.8842 N.ar    1  UNL1       -0.2290
      7 O         138.8904  139.4951  160.2906 O.2     1  UNL1       -0.2522
      8 C         139.7669  140.3756  159.4502 C.2     1  UNL1        0.3089
      9 N         141.2056  140.5775  159.8236 N.am    1  UNL1       -0.2535
     10 N         139.2048  141.0543  158.2363 N.am    1  UNL1       -0.2588
     11 C         137.7661  140.8524  157.8629 C.3     1  UNL1        0.1270
     12 C         137.2041  141.5311  156.6491 C.3     1  UNL1        0.1637
     13 O         138.0806  142.4117  155.8087 O.3     1  UNL1       -0.3501
     14 C         139.5193  142.6135  156.1821 C.3     1  UNL1        0.1637
     15 C         140.0813  141.9348  157.3959 C.3     1  UNL1        0.1270
     16 H         141.7810  141.1554  159.2721 H       1  UNL1        0.1578
     17 C         141.3819  140.0107  164.9858 C.ar    1  UNL1        0.0188
     18 C         142.0166  141.0375  165.8762 C.ar    1  UNL1        0.0758
     19 N         141.2171  141.1100  167.1433 N.ar    1  UNL1       -0.3265
     20 C         140.0882  140.1280  167.0359 C.ar    1  UNL1        0.0793
     21 C         138.9807  139.7647  167.9801 C.ar    1  UNL1        0.1160
     22 N         137.9751  138.7221  167.5908 N.ar    1  UNL1       -0.2408
     23 C         138.0770  138.0427  166.2574 C.ar    1  UNL1        0.0990
     24 C         139.1845  138.4060  165.3132 C.ar    1  UNL1        0.0222
     25 C         140.1901  139.4486  165.7025 C.ar    1  UNL1        0.0203
     26 C         141.4971  142.0069  168.3125 C.3     1  UNL1        0.0906
     27 C         142.8148  141.9219  169.0243 C.3     1  UNL1        0.0547
     28 C         143.0949  142.8189  170.1935 C.3     1  UNL1        0.1441
     29 O         142.0574  143.8009  170.6509 O.3     1  UNL1       -0.3536
     30 C         140.7398  143.8859  169.9390 C.3     1  UNL1        0.1441
     31 C         140.4597  142.9890  168.7699 C.3     1  UNL1        0.0547
@<TRIPOS>BOND
     1     7     8    2
     2     8     9   am
     3     9     1    1
     4     1     2   ar
     5     2     3   ar
     6     3    17    1
     7    17    18   ar
     8    18    19   ar
     9    19    26    1
    10    26    27    1
    11    27    28    1
    12    28    29    1
    13    29    30    1
    14    30    31    1
    15    19    20   ar
    16    20    21   ar
    17    21    22   ar
    18    22    23   ar
    19    23    24   ar
    20    24    25   ar
    21     3     4   ar
    22     4     5   ar
    23     5     6   ar
    24     8    10   am
    25    10    11    1
    26    11    12    1
    27    12    13    1
    28    13    14    1
    29    14    15    1
    30     6     1   ar
    31    15    10    1
    32    25    17   ar
    33    31    26    1
    34    25    20   ar
    35     9    16    1
@<TRIPOS>MOLECULE
*****
 31 35 0 0 0
SMALL
GASTEIGER

@<TRIPOS>ATOM
      1 C         139.4338  139.5541  166.0600 C.ar    1  UNL1        0.1353
      2 C         139.9094  139.6427  164.6401 C.ar    1  UNL1        0.0346
      3 C         139.5910  138.5416  163.6724 C.ar    1  UNL1        0.0058
      4 C         138.7971  137.3521  164.1247 C.ar    1  UNL1        0.0208
      5 C         138.3216  137.2635  165.5445 C.ar    1  UNL1        0.1003
      6 N         138.6400  138.3645  166.5122 N.ar    1  UNL1       -0.2290
      7 O         142.0915  139.6069  167.4504 O.2     1  UNL1       -0.2522
      8 C         141.0811  140.6816  167.7228 C.2     1  UNL1        0.3089
      9 N         139.7522  140.6552  167.0275 N.am    1  UNL1       -0.2535
     10 N         141.3996  141.7827  168.6905 N.am    1  UNL1       -0.2588
     11 C         142.7285  141.8091  169.3857 C.3     1  UNL1        0.1270
     12 C         143.0469  142.9101  170.3533 C.3     1  UNL1        0.1637
     13 O         142.0365  143.9848  170.6256 O.3     1  UNL1       -0.3501
     14 C         140.7076  143.9584  169.9304 C.3     1  UNL1        0.1637
     15 C         140.3892  142.8573  168.9628 C.3     1  UNL1        0.1270
     16 H         139.0891  141.3605  167.2063 H       1  UNL1        0.1578
     17 C         140.0665  138.6302  162.2525 C.ar    1  UNL1        0.0188
     18 C         139.1963  138.7615  161.0378 C.ar    1  UNL1        0.0758
     19 N         140.0877  138.8155  159.8327 N.ar    1  UNL1       -0.3265
     20 C         141.5089  138.7177  160.3025 C.ar    1  UNL1        0.0793
     21 C         142.8132  138.7180  159.5618 C.ar    1  UNL1        0.1160
     22 N         144.1043  138.6039  160.3166 N.ar    1  UNL1       -0.2408
     23 C         144.0912  138.4894  161.8122 C.ar    1  UNL1        0.0990
     24 C         142.7869  138.4890  162.5529 C.ar    1  UNL1        0.0222
     25 C         141.4958  138.6032  161.7981 C.ar    1  UNL1        0.0203
     26 C         139.6371  138.9447  158.4078 C.3     1  UNL1        0.0906
     27 C         139.9695  137.8698  157.4157 C.3     1  UNL1        0.0547
     28 C         139.5189  137.9990  155.9908 C.3     1  UNL1        0.1441
     29 O         138.7360  139.2030  155.5580 O.3     1  UNL1       -0.3536
     30 C         138.4037  140.2779  156.5501 C.3     1  UNL1        0.1441
     31 C         138.8542  140.1487  157.9750 C.3     1  UNL1        0.0547
@<TRIPOS>BOND
     1     7     8    2
     2     8     9   am
     3     9     1    1
     4     1     2   ar
     5     2     3   ar
     6     3    17    1
     7    17    18   ar
     8    18    19   ar
     9    19    26    1
    10    26    27    1
    11    27    28    1
    12    28    29    1
    13    29    30    1
    14    30    31    1
    15    19    20   ar
    16    20    21   ar
    17    21    22   ar
    18    22    23   ar
    19    23    24   ar
    20    24    25   ar
    21     3     4   ar
    22     4     5   ar
    23     5     6   ar
    24     8    10   am
    25    10    11    1
    26    11    12    1
    27    12    13    1
    28    13    14    1
    29    14    15    1
    30     6     1   ar
    31    15    10    1
    32    25    17   ar
    33    31    26    1
    34    25    20   ar
    35     9    16    1
@<TRIPOS>MOLECULE
*****
 31 35 0 0 0
SMALL
GASTEIGER

@<TRIPOS>ATOM
      1 C         136.1720  140.8951  156.1621 C.ar    1  UNL1        0.1353
      2 C         136.8457  141.7525  157.1921 C.ar    1  UNL1        0.0346
      3 C         138.3079  141.5746  157.4761 C.ar    1  UNL1        0.0058
      4 C         139.0961  140.5394  156.7299 C.ar    1  UNL1        0.0208
      5 C         138.4224  139.6820  155.6998 C.ar    1  UNL1        0.1003
      6 N         136.9603  139.8599  155.4159 N.ar    1  UNL1       -0.2290
      7 O         134.1415  139.3140  157.7038 O.2     1  UNL1       -0.2522
      8 C         133.6946  140.2825  156.6491 C.2     1  UNL1        0.3089
      9 N         134.7099  141.0731  155.8782 N.am    1  UNL1       -0.2535
     10 N         132.2324  140.4604  156.3653 N.am    1  UNL1       -0.2588
     11 C         131.2172  139.6698  157.1362 C.3     1  UNL1        0.1270
     12 C         129.7551  139.8477  156.8523 C.3     1  UNL1        0.1637
     13 O         129.3082  140.8162  155.7977 O.3     1  UNL1       -0.3501
     14 C         130.3235  141.6068  155.0268 C.3     1  UNL1        0.1637
     15 C         131.7856  141.4289  155.3106 C.3     1  UNL1        0.1270
     16 H         134.4166  141.7087  155.1860 H       1  UNL1        0.1578
     17 C         138.9816  142.4319  158.5061 C.ar    1  UNL1        0.0188
     18 C         138.7411  142.3855  159.9860 C.ar    1  UNL1        0.0758
     19 N         139.6250  143.4111  160.6316 N.ar    1  UNL1       -0.3265
     20 C         140.4117  144.0915  159.5508 C.ar    1  UNL1        0.0793
     21 C         141.4388  145.1838  159.5930 C.ar    1  UNL1        0.1160
     22 N         142.0682  145.6710  158.3216 N.ar    1  UNL1       -0.2408
     23 C         141.6705  145.0658  157.0080 C.ar    1  UNL1        0.0990
     24 C         140.6435  143.9735  156.9658 C.ar    1  UNL1        0.0222
     25 C         140.0141  143.4863  158.2371 C.ar    1  UNL1        0.0203
     26 C         139.7077  143.7049  162.1002 C.3     1  UNL1        0.0906
     27 C         138.5423  144.3320  162.8065 C.3     1  UNL1        0.0547
     28 C         138.6249  144.6257  164.2751 C.3     1  UNL1        0.1441
     29 O         139.8729  144.2924  165.0375 O.3     1  UNL1       -0.3536
     30 C         141.0383  143.6653  164.3313 C.3     1  UNL1        0.1441
     31 C         140.9556  143.3716  162.8627 C.3     1  UNL1        0.0547
@<TRIPOS>BOND
     1     7     8    2
     2     8     9   am
     3     9     1    1
     4     1     2   ar
     5     2     3   ar
     6     3    17    1
     7    17    18   ar
     8    18    19   ar
     9    19    26    1
    10    26    27    1
    11    27    28    1
    12    28    29    1
    13    29    30    1
    14    30    31    1
    15    19    20   ar
    16    20    21   ar
    17    21    22   ar
    18    22    23   ar
    19    23    24   ar
    20    24    25   ar
    21     3     4   ar
    22     4     5   ar
    23     5     6   ar
    24     8    10   am
    25    10    11    1
    26    11    12    1
    27    12    13    1
    28    13    14    1
    29    14    15    1
    30     6     1   ar
    31    15    10    1
    32    25    17   ar
    33    31    26    1
    34    25    20   ar
    35     9    16    1
