@<TRIPOS>MOLECULE
*****
 29 32 0 0 0
SMALL
GASTEIGER

@<TRIPOS>ATOM
      1 N         142.5814  141.1554  167.2761 N.pl3   1  UNL1       -0.2784
      2 C         142.7866  141.9914  166.0477 C.3     1  UNL1        0.0950
      3 C         142.8303  141.3412  164.6967 C.3     1  UNL1        0.0375
      4 C         142.6690  139.8549  164.5741 C.3     1  UNL1        0.0609
      5 C         142.4638  139.0189  165.8025 C.3     1  UNL1        0.0375
      6 C         142.4201  139.6692  167.1535 C.3     1  UNL1        0.0950
      7 N         143.7892  144.1686  171.4407 N.pl3   1  UNL1       -0.3277
      8 C         143.0928  143.1906  170.5414 C.ar    1  UNL1        0.2131
      9 N         141.8477  142.4217  170.8711 N.ar    1  UNL1       -0.1121
     10 N         141.5046  141.5658  169.6880 N.ar    1  UNL1       -0.1117
     11 C         142.5377  141.8056  168.6272 C.ar    1  UNL1        0.2194
     12 N         143.5192  142.8098  169.1546 N.ar    1  UNL1       -0.2979
     13 H         143.4305  144.3532  172.3388 H       1  UNL1        0.1451
     14 H         144.6048  144.6259  171.1328 H       1  UNL1        0.1451
     15 H         144.3052  143.1579  168.6748 H       1  UNL1        0.1713
     16 N         142.7127  139.2047  163.2230 N.3     1  UNL1       -0.2748
     17 C         143.9712  138.5381  162.7519 C.3     1  UNL1        0.0720
     18 C         144.0149  137.8879  161.4009 C.3     1  UNL1        0.0174
     19 C         142.8003  137.9043  160.5209 C.3     1  UNL1        0.0028
     20 C         141.5418  138.5710  160.9921 C.3     1  UNL1        0.0163
     21 C         141.4981  139.2212  162.3431 C.3     1  UNL1        0.0618
     22 C         140.2396  139.8878  162.8143 C.3     1  UNL1        0.0423
     23 C         139.4742  139.3140  163.9696 C.ar    1  UNL1       -0.0208
     24 C         138.8214  140.2273  164.9645 C.ar    1  UNL1       -0.0034
     25 C         138.0560  139.6534  166.1199 C.ar    1  UNL1        0.0111
     26 C         137.9433  138.1662  166.2802 C.ar    1  UNL1        0.0577
     27 CL        137.1779  137.5923  167.4356 Cl      1  UNL1       -0.0822
     28 C         138.5961  137.2530  165.2853 C.ar    1  UNL1        0.0111
     29 C         139.3615  137.8269  164.1300 C.ar    1  UNL1       -0.0034
@<TRIPOS>BOND
     1     7     8    1
     2     8     9   ar
     3     9    10   ar
     4    10    11   ar
     5    11     1    1
     6     1     2    1
     7     2     3    1
     8     3     4    1
     9     4    16    1
    10    16    17    1
    11    17    18    1
    12    18    19    1
    13    19    20    1
    14    20    21    1
    15    21    22    1
    16    22    23    1
    17    23    24   ar
    18    24    25   ar
    19    25    26   ar
    20    26    27    1
    21    26    28   ar
    22    28    29   ar
    23     4     5    1
    24     5     6    1
    25    11    12   ar
    26    12     8   ar
    27     6     1    1
    28    21    16    1
    29    29    23   ar
    30     7    13    1
    31     7    14    1
    32    12    15    1
@<TRIPOS>MOLECULE
*****
 29 32 0 0 0
SMALL
GASTEIGER

@<TRIPOS>ATOM
      1 N         140.9407  141.2121  168.0456 N.pl3   1  UNL1       -0.2784
      2 C         139.7307  140.3275  168.1016 C.3     1  UNL1        0.0950
      3 C         139.2040  139.6970  166.8466 C.3     1  UNL1        0.0375
      4 C         139.8873  139.9511  165.5357 C.3     1  UNL1        0.0609
      5 C         141.0973  140.8358  165.4797 C.3     1  UNL1        0.0375
      6 C         141.6241  141.4663  166.7347 C.3     1  UNL1        0.0950
      7 N         143.7159  144.2452  171.3592 N.pl3   1  UNL1       -0.3277
      8 C         142.7431  143.2368  170.8237 C.ar    1  UNL1        0.2131
      9 N         141.8130  142.3890  171.6401 N.ar    1  UNL1       -0.1121
     10 N         141.0247  141.5274  170.6987 N.ar    1  UNL1       -0.1117
     11 C         141.4675  141.8427  169.3006 C.ar    1  UNL1        0.2194
     12 N         142.5295  142.8991  169.3779 N.ar    1  UNL1       -0.2979
     13 H         143.7835  144.3969  172.3296 H       1  UNL1        0.1451
     14 H         144.2869  144.7553  170.7403 H       1  UNL1        0.1451
     15 H         143.0033  143.3004  168.6139 H       1  UNL1        0.1713
     16 N         139.3605  139.3206  164.2807 N.3     1  UNL1       -0.2748
     17 C         139.9350  138.0229  163.7951 C.3     1  UNL1        0.0720
     18 C         139.4082  137.3923  162.5401 C.3     1  UNL1        0.0174
     19 C         138.3070  138.0596  161.7707 C.3     1  UNL1        0.0028
     20 C         137.7325  139.3574  162.2563 C.3     1  UNL1        0.0163
     21 C         138.2593  139.9879  163.5112 C.3     1  UNL1        0.0618
     22 C         137.6848  141.2857  163.9968 C.3     1  UNL1        0.0423
     23 C         138.2626  142.5860  163.5220 C.ar    1  UNL1       -0.0208
     24 C         138.5973  143.6634  164.5106 C.ar    1  UNL1       -0.0034
     25 C         139.1751  144.9637  164.0358 C.ar    1  UNL1        0.0111
     26 C         139.4183  145.1865  162.5724 C.ar    1  UNL1        0.0577
     27 CL        139.9961  146.4867  162.0976 Cl      1  UNL1       -0.0822
     28 C         139.0836  144.1090  161.5840 C.ar    1  UNL1        0.0111
     29 C         138.5058  142.8088  162.0588 C.ar    1  UNL1       -0.0034
@<TRIPOS>BOND
     1     7     8    1
     2     8     9   ar
     3     9    10   ar
     4    10    11   ar
     5    11     1    1
     6     1     2    1
     7     2     3    1
     8     3     4    1
     9     4    16    1
    10    16    17    1
    11    17    18    1
    12    18    19    1
    13    19    20    1
    14    20    21    1
    15    21    22    1
    16    22    23    1
    17    23    24   ar
    18    24    25   ar
    19    25    26   ar
    20    26    27    1
    21    26    28   ar
    22    28    29   ar
    23     4     5    1
    24     5     6    1
    25    11    12   ar
    26    12     8   ar
    27     6     1    1
    28    21    16    1
    29    29    23   ar
    30     7    13    1
    31     7    14    1
    32    12    15    1
@<TRIPOS>MOLECULE
*****
 29 32 0 0 0
SMALL
GASTEIGER

@<TRIPOS>ATOM
      1 N         140.8078  139.9724  167.5952 N.pl3   1  UNL1       -0.2784
      2 C         139.3125  139.8979  167.5030 C.3     1  UNL1        0.0950
      3 C         138.6484  139.7848  166.1628 C.3     1  UNL1        0.0375
      4 C         139.4796  139.7461  164.9148 C.3     1  UNL1        0.0609
      5 C         140.9749  139.8206  165.0069 C.3     1  UNL1        0.0375
      6 C         141.6390  139.9337  166.3471 C.3     1  UNL1        0.0950
      7 N         144.2051  139.3320  171.5864 N.pl3   1  UNL1       -0.3277
      8 C         143.0335  139.7912  170.7699 C.ar    1  UNL1        0.2131
      9 N         141.9542  140.7281  171.2257 N.ar    1  UNL1       -0.1121
     10 N         140.9892  140.9099  170.0918 N.ar    1  UNL1       -0.1117
     11 C         141.4719  140.0855  168.9354 C.ar    1  UNL1        0.2194
     12 N         142.7353  139.3941  169.3545 N.ar    1  UNL1       -0.2979
     13 H         144.3152  139.6500  172.5116 H       1  UNL1        0.1451
     14 H         144.8639  138.7127  171.1970 H       1  UNL1        0.1451
     15 H         143.2743  138.7863  168.7983 H       1  UNL1        0.1713
     16 N         138.8155  139.6330  163.5745 N.3     1  UNL1       -0.2748
     17 C         138.6014  138.2838  162.9551 C.3     1  UNL1        0.0720
     18 C         137.9372  138.1707  161.6148 C.3     1  UNL1        0.0174
     19 C         137.4872  139.4068  160.8941 C.3     1  UNL1        0.0028
     20 C         137.7013  140.7561  161.5136 C.3     1  UNL1        0.0163
     21 C         138.3655  140.8691  162.8538 C.3     1  UNL1        0.0618
     22 C         138.5796  142.2184  163.4733 C.3     1  UNL1        0.0423
     23 C         139.9107  142.8984  163.3481 C.ar    1  UNL1       -0.0208
     24 C         140.2356  144.0769  164.2175 C.ar    1  UNL1       -0.0034
     25 C         141.5667  144.7569  164.0923 C.ar    1  UNL1        0.0111
     26 C         142.5729  144.2585  163.0976 C.ar    1  UNL1        0.0577
     27 CL        143.9040  144.9386  162.9723 Cl      1  UNL1       -0.0822
     28 C         142.2480  143.0802  162.2282 C.ar    1  UNL1        0.0111
     29 C         140.9168  142.4001  162.3535 C.ar    1  UNL1       -0.0034
@<TRIPOS>BOND
     1     7     8    1
     2     8     9   ar
     3     9    10   ar
     4    10    11   ar
     5    11     1    1
     6     1     2    1
     7     2     3    1
     8     3     4    1
     9     4    16    1
    10    16    17    1
    11    17    18    1
    12    18    19    1
    13    19    20    1
    14    20    21    1
    15    21    22    1
    16    22    23    1
    17    23    24   ar
    18    24    25   ar
    19    25    26   ar
    20    26    27    1
    21    26    28   ar
    22    28    29   ar
    23     4     5    1
    24     5     6    1
    25    11    12   ar
    26    12     8   ar
    27     6     1    1
    28    21    16    1
    29    29    23   ar
    30     7    13    1
    31     7    14    1
    32    12    15    1
@<TRIPOS>MOLECULE
*****
 29 32 0 0 0
SMALL
GASTEIGER

@<TRIPOS>ATOM
      1 N         139.4784  139.8361  166.7128 N.pl3   1  UNL1       -0.2784
      2 C         139.9605  140.9662  165.8523 C.3     1  UNL1        0.0950
      3 C         139.8471  140.8734  164.3595 C.3     1  UNL1        0.0375
      4 C         139.2516  139.6505  163.7272 C.3     1  UNL1        0.0609
      5 C         138.7695  138.5204  164.5876 C.3     1  UNL1        0.0375
      6 C         138.8829  138.6132  166.0804 C.3     1  UNL1        0.0950
      7 N         141.4367  140.5324  171.5668 N.pl3   1  UNL1       -0.3277
      8 C         140.4919  140.2490  170.4367 C.ar    1  UNL1        0.2131
      9 N         139.0403  139.8945  170.5690 N.ar    1  UNL1       -0.1121
     10 N         138.4840  139.6967  169.1901 N.ar    1  UNL1       -0.1117
     11 C         139.5917  139.9289  168.2056 C.ar    1  UNL1        0.2194
     12 N         140.8326  140.2703  168.9761 N.ar    1  UNL1       -0.2979
     13 H         141.1172  140.4934  172.4971 H       1  UNL1        0.1451
     14 H         142.3764  140.7574  171.3780 H       1  UNL1        0.1451
     15 H         141.7157  140.4727  168.5908 H       1  UNL1        0.1713
     16 N         139.1382  139.5576  162.2343 N.3     1  UNL1       -0.2748
     17 C         137.9761  140.1921  161.5295 C.3     1  UNL1        0.0720
     18 C         137.8627  140.0993  160.0366 C.3     1  UNL1        0.0174
     19 C         138.9116  139.3720  159.2486 C.3     1  UNL1        0.0028
     20 C         140.0738  138.7376  159.9535 C.3     1  UNL1        0.0163
     21 C         140.1871  138.8304  161.4463 C.3     1  UNL1        0.0618
     22 C         141.3494  138.1960  162.1511 C.3     1  UNL1        0.0423
     23 C         142.5252  139.0322  162.5612 C.ar    1  UNL1       -0.0208
     24 C         143.0365  138.9678  163.9699 C.ar    1  UNL1       -0.0034
     25 C         144.2123  139.8041  164.3799 C.ar    1  UNL1        0.0111
     26 C         144.8768  140.7048  163.3812 C.ar    1  UNL1        0.0577
     27 CL        146.0526  141.5411  163.7913 Cl      1  UNL1       -0.0822
     28 C         144.3654  140.7692  161.9726 C.ar    1  UNL1        0.0111
     29 C         143.1896  139.9329  161.5626 C.ar    1  UNL1       -0.0034
@<TRIPOS>BOND
     1     7     8    1
     2     8     9   ar
     3     9    10   ar
     4    10    11   ar
     5    11     1    1
     6     1     2    1
     7     2     3    1
     8     3     4    1
     9     4    16    1
    10    16    17    1
    11    17    18    1
    12    18    19    1
    13    19    20    1
    14    20    21    1
    15    21    22    1
    16    22    23    1
    17    23    24   ar
    18    24    25   ar
    19    25    26   ar
    20    26    27    1
    21    26    28   ar
    22    28    29   ar
    23     4     5    1
    24     5     6    1
    25    11    12   ar
    26    12     8   ar
    27     6     1    1
    28    21    16    1
    29    29    23   ar
    30     7    13    1
    31     7    14    1
    32    12    15    1
@<TRIPOS>MOLECULE
*****
 29 32 0 0 0
SMALL
GASTEIGER

@<TRIPOS>ATOM
      1 N         140.4429  141.4558  167.4457 N.pl3   1  UNL1       -0.2784
      2 C         140.7593  142.1495  166.1540 C.3     1  UNL1        0.0950
      3 C         140.3484  141.5315  164.8505 C.3     1  UNL1        0.0375
      4 C         139.6210  140.2197  164.8388 C.3     1  UNL1        0.0609
      5 C         139.3046  139.5260  166.1305 C.3     1  UNL1        0.0375
      6 C         139.7155  140.1441  167.4339 C.3     1  UNL1        0.0950
      7 N         143.2897  143.8588  171.1877 N.pl3   1  UNL1       -0.3277
      8 C         142.1623  143.1784  170.4692 C.ar    1  UNL1        0.2131
      9 N         140.8099  142.8716  171.0411 N.ar    1  UNL1       -0.1121
     10 N         140.0013  142.1890  169.9780 N.ar    1  UNL1       -0.1117
     11 C         140.8538  142.0739  168.7492 C.ar    1  UNL1        0.2194
     12 N         142.1894  142.6854  169.0528 N.ar    1  UNL1       -0.2979
     13 H         143.1750  144.1475  172.1219 H       1  UNL1        0.1451
     14 H         144.1442  144.0167  170.7251 H       1  UNL1        0.1451
     15 H         142.9503  142.7516  168.4315 H       1  UNL1        0.1713
     16 N         139.2101  139.6016  163.5352 N.3     1  UNL1       -0.2748
     17 C         137.9440  140.0423  162.8624 C.3     1  UNL1        0.0720
     18 C         137.5330  139.4242  161.5588 C.3     1  UNL1        0.0174
     19 C         138.3882  138.3654  160.9282 C.3     1  UNL1        0.0028
     20 C         139.6544  137.9248  161.6011 C.3     1  UNL1        0.0163
     21 C         140.0653  138.5428  162.9046 C.3     1  UNL1        0.0618
     22 C         141.3314  138.1022  163.5775 C.3     1  UNL1        0.0423
     23 C         142.5365  138.9953  163.5668 C.ar    1  UNL1       -0.0208
     24 C         142.7642  139.9339  162.4191 C.ar    1  UNL1       -0.0034
     25 C         143.9692  140.8271  162.4083 C.ar    1  UNL1        0.0111
     26 C         144.9466  140.7816  163.5453 C.ar    1  UNL1        0.0577
     27 CL        146.1517  141.6747  163.5346 Cl      1  UNL1       -0.0822
     28 C         144.7189  139.8430  164.6930 C.ar    1  UNL1        0.0111
     29 C         143.5138  138.9499  164.7037 C.ar    1  UNL1       -0.0034
@<TRIPOS>BOND
     1     7     8    1
     2     8     9   ar
     3     9    10   ar
     4    10    11   ar
     5    11     1    1
     6     1     2    1
     7     2     3    1
     8     3     4    1
     9     4    16    1
    10    16    17    1
    11    17    18    1
    12    18    19    1
    13    19    20    1
    14    20    21    1
    15    21    22    1
    16    22    23    1
    17    23    24   ar
    18    24    25   ar
    19    25    26   ar
    20    26    27    1
    21    26    28   ar
    22    28    29   ar
    23     4     5    1
    24     5     6    1
    25    11    12   ar
    26    12     8   ar
    27     6     1    1
    28    21    16    1
    29    29    23   ar
    30     7    13    1
    31     7    14    1
    32    12    15    1
@<TRIPOS>MOLECULE
*****
 29 32 0 0 0
SMALL
GASTEIGER

@<TRIPOS>ATOM
      1 N         139.8588  140.2830  167.8236 N.pl3   1  UNL1       -0.2784
      2 C         140.7149  140.6835  166.6588 C.3     1  UNL1        0.0950
      3 C         140.2723  140.3708  165.2602 C.3     1  UNL1        0.0375
      4 C         138.9735  139.6576  165.0263 C.3     1  UNL1        0.0609
      5 C         138.1175  139.2572  166.1911 C.3     1  UNL1        0.0375
      6 C         138.5601  139.5699  167.5897 C.3     1  UNL1        0.0950
      7 N         142.3411  142.4836  171.9318 N.pl3   1  UNL1       -0.3277
      8 C         141.4424  141.6072  171.1106 C.ar    1  UNL1        0.2131
      9 N         140.5227  140.5464  171.6388 N.ar    1  UNL1       -0.1121
     10 N         139.8175  139.9213  170.4718 N.ar    1  UNL1       -0.1117
     11 C         140.3015  140.5957  169.2223 C.ar    1  UNL1        0.2194
     12 N         141.3057  141.6376  169.6172 N.ar    1  UNL1       -0.2979
     13 H         142.3609  142.3879  172.9114 H       1  UNL1        0.1451
     14 H         142.9110  143.1546  171.4911 H       1  UNL1        0.1451
     15 H         141.7900  142.2364  169.0038 H       1  UNL1        0.1713
     16 N         138.5309  139.3450  163.6276 N.3     1  UNL1       -0.2748
     17 C         138.7909  137.9877  163.0444 C.3     1  UNL1        0.0720
     18 C         138.3482  137.6750  161.6457 C.3     1  UNL1        0.0174
     19 C         137.6457  138.7197  160.8302 C.3     1  UNL1        0.0028
     20 C         137.3857  140.0770  161.4134 C.3     1  UNL1        0.0163
     21 C         137.8283  140.3896  162.8121 C.3     1  UNL1        0.0618
     22 C         137.5684  141.7470  163.3953 C.3     1  UNL1        0.0423
     23 C         138.6843  142.7437  163.5019 C.ar    1  UNL1       -0.0208
     24 C         139.7878  142.7456  162.4858 C.ar    1  UNL1       -0.0034
     25 C         140.9037  143.7423  162.5924 C.ar    1  UNL1        0.0111
     26 C         140.9160  144.7371  163.7151 C.ar    1  UNL1        0.0577
     27 CL        142.0319  145.7339  163.8217 Cl      1  UNL1       -0.0822
     28 C         139.8126  144.7352  164.7311 C.ar    1  UNL1        0.0111
     29 C         138.6967  143.7385  164.6245 C.ar    1  UNL1       -0.0034
@<TRIPOS>BOND
     1     7     8    1
     2     8     9   ar
     3     9    10   ar
     4    10    11   ar
     5    11     1    1
     6     1     2    1
     7     2     3    1
     8     3     4    1
     9     4    16    1
    10    16    17    1
    11    17    18    1
    12    18    19    1
    13    19    20    1
    14    20    21    1
    15    21    22    1
    16    22    23    1
    17    23    24   ar
    18    24    25   ar
    19    25    26   ar
    20    26    27    1
    21    26    28   ar
    22    28    29   ar
    23     4     5    1
    24     5     6    1
    25    11    12   ar
    26    12     8   ar
    27     6     1    1
    28    21    16    1
    29    29    23   ar
    30     7    13    1
    31     7    14    1
    32    12    15    1
@<TRIPOS>MOLECULE
*****
 29 32 0 0 0
SMALL
GASTEIGER

@<TRIPOS>ATOM
      1 N         141.1265  143.6870  163.7501 N.pl3   1  UNL1       -0.2784
      2 C         142.4351  142.9845  163.9592 C.3     1  UNL1        0.0950
      3 C         142.7293  142.3222  165.2725 C.3     1  UNL1        0.0375
      4 C         141.7148  142.3624  166.3767 C.3     1  UNL1        0.0609
      5 C         140.4061  143.0649  166.1675 C.3     1  UNL1        0.0375
      6 C         140.1120  143.7272  164.8542 C.3     1  UNL1        0.0950
      7 N         141.7320  145.8900  158.9897 N.pl3   1  UNL1       -0.3277
      8 C         141.1106  145.3619  160.2487 C.ar    1  UNL1        0.2131
      9 N         139.6483  145.3753  160.5829 N.ar    1  UNL1       -0.1121
     10 N         139.4763  144.7495  161.9353 N.ar    1  UNL1       -0.1117
     11 C         140.8323  144.3494  162.4367 C.ar    1  UNL1        0.2194
     12 N         141.8422  144.7279  161.3944 N.ar    1  UNL1       -0.2979
     13 H         141.1652  146.2906  158.2915 H       1  UNL1        0.1451
     14 H         142.7066  145.8359  158.8615 H       1  UNL1        0.1451
     15 H         142.8146  144.5853  161.4520 H       1  UNL1        0.1713
     16 N         142.0090  141.7001  167.6900 N.3     1  UNL1       -0.2748
     17 C         143.0879  142.2437  168.5791 C.3     1  UNL1        0.0720
     18 C         143.3821  141.5813  169.8925 C.3     1  UNL1        0.0174
     19 C         142.5974  140.3754  170.3166 C.3     1  UNL1        0.0028
     20 C         141.5185  139.8317  169.4274 C.3     1  UNL1        0.0163
     21 C         141.2244  140.4941  168.1142 C.3     1  UNL1        0.0618
     22 C         140.1455  139.9505  167.2250 C.3     1  UNL1        0.0423
     23 C         140.4974  139.3718  165.8866 C.ar    1  UNL1       -0.0208
     24 C         139.5388  139.4976  164.7396 C.ar    1  UNL1       -0.0034
     25 C         139.8907  138.9190  163.4012 C.ar    1  UNL1        0.0111
     26 C         141.2011  138.2145  163.2098 C.ar    1  UNL1        0.0577
     27 CL        141.5530  137.6358  161.8714 Cl      1  UNL1       -0.0822
     28 C         142.1596  138.0887  164.3567 C.ar    1  UNL1        0.0111
     29 C         141.8077  138.6674  165.6951 C.ar    1  UNL1       -0.0034
@<TRIPOS>BOND
     1     7     8    1
     2     8     9   ar
     3     9    10   ar
     4    10    11   ar
     5    11     1    1
     6     1     2    1
     7     2     3    1
     8     3     4    1
     9     4    16    1
    10    16    17    1
    11    17    18    1
    12    18    19    1
    13    19    20    1
    14    20    21    1
    15    21    22    1
    16    22    23    1
    17    23    24   ar
    18    24    25   ar
    19    25    26   ar
    20    26    27    1
    21    26    28   ar
    22    28    29   ar
    23     4     5    1
    24     5     6    1
    25    11    12   ar
    26    12     8   ar
    27     6     1    1
    28    21    16    1
    29    29    23   ar
    30     7    13    1
    31     7    14    1
    32    12    15    1
@<TRIPOS>MOLECULE
*****
 29 32 0 0 0
SMALL
GASTEIGER

@<TRIPOS>ATOM
      1 N         141.0208  143.6177  162.7369 N.pl3   1  UNL1       -0.2784
      2 C         141.7863  142.3303  162.8176 C.3     1  UNL1        0.0950
      3 C         141.9192  141.6179  164.1309 C.3     1  UNL1        0.0375
      4 C         141.2867  142.1930  165.3635 C.3     1  UNL1        0.0609
      5 C         140.5212  143.4804  165.2827 C.3     1  UNL1        0.0375
      6 C         140.3883  144.1927  163.9694 C.3     1  UNL1        0.0950
      7 N         142.1982  145.9880  158.1678 N.pl3   1  UNL1       -0.3277
      8 C         141.4290  145.4197  159.3234 C.ar    1  UNL1        0.2131
      9 N         139.9374  145.4333  159.4817 N.ar    1  UNL1       -0.1121
     10 N         139.6030  144.7599  160.7797 N.ar    1  UNL1       -0.1117
     11 C         140.8879  144.3302  161.4235 C.ar    1  UNL1        0.2194
     12 N         142.0164  144.7379  160.5234 N.ar    1  UNL1       -0.2979
     13 H         141.7203  146.4188  157.4226 H       1  UNL1        0.1451
     14 H         143.1809  145.9303  158.1545 H       1  UNL1        0.1451
     15 H         142.9744  144.5849  160.6909 H       1  UNL1        0.1713
     16 N         141.4196  141.4805  166.6768 N.3     1  UNL1       -0.2748
     17 C         142.6949  141.5829  167.4599 C.3     1  UNL1        0.0720
     18 C         142.8278  140.8704  168.7732 C.3     1  UNL1        0.0174
     19 C         141.6855  140.0557  169.3035 C.3     1  UNL1        0.0028
     20 C         140.4102  139.9533  168.5203 C.3     1  UNL1        0.0163
     21 C         140.2773  140.6657  167.2071 C.3     1  UNL1        0.0618
     22 C         139.0020  140.5634  166.4240 C.3     1  UNL1        0.0423
     23 C         138.9965  139.8881  165.0846 C.ar    1  UNL1       -0.0208
     24 C         139.7315  138.5945  164.8938 C.ar    1  UNL1       -0.0034
     25 C         139.7261  137.9192  163.5544 C.ar    1  UNL1        0.0111
     26 C         138.9855  138.5376  162.4058 C.ar    1  UNL1        0.0577
     27 CL        138.9800  137.8623  161.0664 Cl      1  UNL1       -0.0822
     28 C         138.2505  139.8311  162.5966 C.ar    1  UNL1        0.0111
     29 C         138.2560  140.5064  163.9359 C.ar    1  UNL1       -0.0034
@<TRIPOS>BOND
     1     7     8    1
     2     8     9   ar
     3     9    10   ar
     4    10    11   ar
     5    11     1    1
     6     1     2    1
     7     2     3    1
     8     3     4    1
     9     4    16    1
    10    16    17    1
    11    17    18    1
    12    18    19    1
    13    19    20    1
    14    20    21    1
    15    21    22    1
    16    22    23    1
    17    23    24   ar
    18    24    25   ar
    19    25    26   ar
    20    26    27    1
    21    26    28   ar
    22    28    29   ar
    23     4     5    1
    24     5     6    1
    25    11    12   ar
    26    12     8   ar
    27     6     1    1
    28    21    16    1
    29    29    23   ar
    30     7    13    1
    31     7    14    1
    32    12    15    1
@<TRIPOS>MOLECULE
*****
 29 32 0 0 0
SMALL
GASTEIGER

@<TRIPOS>ATOM
      1 N         141.6125  138.6611  161.8489 N.pl3   1  UNL1       -0.2784
      2 C         141.1040  137.5881  162.7654 C.3     1  UNL1        0.0950
      3 C         141.0558  137.8267  164.2455 C.3     1  UNL1        0.0375
      4 C         141.5162  139.1384  164.8091 C.3     1  UNL1        0.0609
      5 C         142.0247  140.2114  163.8926 C.3     1  UNL1        0.0375
      6 C         142.0729  139.9728  162.4125 C.3     1  UNL1        0.0950
      7 N         143.3684  137.5331  156.9986 N.pl3   1  UNL1       -0.3277
      8 C         142.4678  137.9040  158.1393 C.ar    1  UNL1        0.2131
      9 N         141.0017  138.2067  158.0428 N.ar    1  UNL1       -0.1121
     10 N         140.5030  138.5271  159.4207 N.ar    1  UNL1       -0.1117
     11 C         141.6607  138.4225  160.3687 C.ar    1  UNL1        0.2194
     12 N         142.8750  138.0374  159.5768 N.ar    1  UNL1       -0.2979
     13 H         143.0059  137.4709  156.0853 H       1  UNL1        0.1451
     14 H         144.3220  137.3519  157.1631 H       1  UNL1        0.1451
     15 H         143.7803  137.8969  159.9372 H       1  UNL1        0.1713
     16 N         141.4680  139.3770  166.2892 N.3     1  UNL1       -0.2748
     17 C         142.6984  139.1721  167.1224 C.3     1  UNL1        0.0720
     18 C         142.6502  139.4107  168.6025 C.3     1  UNL1        0.0174
     19 C         141.3716  139.8542  169.2495 C.3     1  UNL1        0.0028
     20 C         140.1412  140.0591  168.4163 C.3     1  UNL1        0.0163
     21 C         140.1894  139.8205  166.9362 C.3     1  UNL1        0.0618
     22 C         138.9590  140.0253  166.1029 C.3     1  UNL1        0.0423
     23 C         138.8155  141.2640  165.2692 C.ar    1  UNL1       -0.0208
     24 C         137.8910  141.2700  164.0879 C.ar    1  UNL1       -0.0034
     25 C         137.7475  142.5086  163.2541 C.ar    1  UNL1        0.0111
     26 C         138.5286  143.7412  163.6016 C.ar    1  UNL1        0.0577
     27 CL        138.3851  144.9799  162.7678 Cl      1  UNL1       -0.0822
     28 C         139.4531  143.7352  164.7828 C.ar    1  UNL1        0.0111
     29 C         139.5965  142.4965  165.6166 C.ar    1  UNL1       -0.0034
@<TRIPOS>BOND
     1     7     8    1
     2     8     9   ar
     3     9    10   ar
     4    10    11   ar
     5    11     1    1
     6     1     2    1
     7     2     3    1
     8     3     4    1
     9     4    16    1
    10    16    17    1
    11    17    18    1
    12    18    19    1
    13    19    20    1
    14    20    21    1
    15    21    22    1
    16    22    23    1
    17    23    24   ar
    18    24    25   ar
    19    25    26   ar
    20    26    27    1
    21    26    28   ar
    22    28    29   ar
    23     4     5    1
    24     5     6    1
    25    11    12   ar
    26    12     8   ar
    27     6     1    1
    28    21    16    1
    29    29    23   ar
    30     7    13    1
    31     7    14    1
    32    12    15    1
