@<TRIPOS>MOLECULE
*****
 25 27 0 0 0
SMALL
GASTEIGER

@<TRIPOS>ATOM
      1 C         138.4713  138.9757  165.7496 C.3     1  UNL1        0.1687
      2 C         138.9352  137.6421  165.2431 C.3     1  UNL1        0.0609
      3 C         139.1581  137.4337  163.7745 C.3     1  UNL1        0.0758
      4 N         138.9171  138.5589  162.8123 N.3     1  UNL1       -0.2724
      5 C         138.4532  139.8924  163.3186 C.3     1  UNL1        0.0758
      6 C         138.2303  140.1008  164.7873 C.3     1  UNL1        0.0609
      7 O         138.2484  139.1840  167.2182 O.3     1  UNL1       -0.4790
      8 C         141.2837  141.4400  169.6569 C.ar    1  UNL1        0.0177
      9 C         139.9995  140.9898  170.2878 C.ar    1  UNL1        0.0021
     10 C         138.9877  140.2378  169.4749 C.ar    1  UNL1        0.0367
     11 C         139.2602  139.9360  168.0311 C.ar    1  UNL1        0.1392
     12 C         140.5444  140.3862  167.4002 C.ar    1  UNL1        0.0480
     13 C         141.5561  141.1382  168.2131 C.ar    1  UNL1        0.0590
     14 CL        142.8404  141.5884  167.5821 Cl      1  UNL1       -0.0824
     15 O         142.1507  142.2712  171.9607 O.3     1  UNL1       -0.3772
     16 C         142.2955  142.1920  170.4698 C.3     1  UNL1        0.1644
     17 H         142.8828  142.7898  172.3295 H       1  UNL1        0.2109
     18 C         139.1401  138.3505  161.3436 C.3     1  UNL1        0.0721
     19 C         140.5341  138.3456  160.7899 C.3     1  UNL1        0.0187
     20 C         141.6854  137.9368  161.6601 C.3     1  UNL1        0.0185
     21 C         143.0794  137.9320  161.1064 C.3     1  UNL1        0.0686
     22 N         143.3222  138.3359  159.6823 N.3     1  UNL1       -0.2975
     23 C         142.1709  138.7448  158.8121 C.3     1  UNL1        0.0686
     24 C         140.7768  138.7496  159.3659 C.3     1  UNL1        0.0185
     25 H         143.7709  137.5430  159.2237 H       1  UNL1        0.1232
@<TRIPOS>BOND
     1    15    16    1
     2    16     8    1
     3     8     9   ar
     4     9    10   ar
     5    10    11   ar
     6    11     7    1
     7     7     1    1
     8     1     2    1
     9     2     3    1
    10     3     4    1
    11     4    18    1
    12    18    19    1
    13    19    20    1
    14    20    21    1
    15    21    22    1
    16    22    23    1
    17    23    24    1
    18     4     5    1
    19     5     6    1
    20    11    12   ar
    21    12    13   ar
    22    13    14    1
    23    13     8   ar
    24     6     1    1
    25    24    19    1
    26    15    17    1
    27    22    25    1
@<TRIPOS>MOLECULE
*****
 25 27 0 0 0
SMALL
GASTEIGER

@<TRIPOS>ATOM
      1 C         138.4608  139.0045  165.8224 C.3     1  UNL1        0.1687
      2 C         138.9383  137.7283  165.1951 C.3     1  UNL1        0.0609
      3 C         139.0537  137.6231  163.7033 C.3     1  UNL1        0.0758
      4 N         138.6916  138.7941  162.8386 N.3     1  UNL1       -0.2724
      5 C         138.2141  140.0703  163.4658 C.3     1  UNL1        0.0758
      6 C         138.0986  140.1755  164.9577 C.3     1  UNL1        0.0609
      7 O         138.3454  139.1096  167.3142 O.3     1  UNL1       -0.4790
      8 C         141.3027  141.5872  169.6307 C.ar    1  UNL1        0.0177
      9 C         140.0398  141.1167  170.2892 C.ar    1  UNL1        0.0021
     10 C         139.0540  140.2908  169.5170 C.ar    1  UNL1        0.0367
     11 C         139.3311  139.9355  168.0863 C.ar    1  UNL1        0.1392
     12 C         140.5940  140.4059  167.4278 C.ar    1  UNL1        0.0480
     13 C         141.5798  141.2318  168.2000 C.ar    1  UNL1        0.0590
     14 CL        142.8427  141.7023  167.5414 Cl      1  UNL1       -0.0824
     15 O         142.2550  142.4131  171.9024 O.3     1  UNL1       -0.3772
     16 C         142.2884  142.4130  170.4028 C.3     1  UNL1        0.1644
     17 H         142.9535  142.9945  172.2414 H       1  UNL1        0.2109
     18 C         138.8070  138.6889  161.3467 C.3     1  UNL1        0.0721
     19 C         139.1879  139.8929  160.5372 C.3     1  UNL1        0.0187
     20 C         140.5965  140.4070  160.5750 C.3     1  UNL1        0.0185
     21 C         140.9774  141.6109  159.7654 C.3     1  UNL1        0.0686
     22 N         139.9497  142.3008  158.9181 N.3     1  UNL1       -0.2975
     23 C         138.5411  141.7867  158.8804 C.3     1  UNL1        0.0686
     24 C         138.1602  140.5827  159.6900 C.3     1  UNL1        0.0185
     25 H         140.2965  142.2800  157.9591 H       1  UNL1        0.1232
@<TRIPOS>BOND
     1    15    16    1
     2    16     8    1
     3     8     9   ar
     4     9    10   ar
     5    10    11   ar
     6    11     7    1
     7     7     1    1
     8     1     2    1
     9     2     3    1
    10     3     4    1
    11     4    18    1
    12    18    19    1
    13    19    20    1
    14    20    21    1
    15    21    22    1
    16    22    23    1
    17    23    24    1
    18     4     5    1
    19     5     6    1
    20    11    12   ar
    21    12    13   ar
    22    13    14    1
    23    13     8   ar
    24     6     1    1
    25    24    19    1
    26    15    17    1
    27    22    25    1
@<TRIPOS>MOLECULE
*****
 25 27 0 0 0
SMALL
GASTEIGER

@<TRIPOS>ATOM
      1 C         143.3365  140.7728  164.9381 C.3     1  UNL1        0.1687
      2 C         142.3675  140.4956  163.8271 C.3     1  UNL1        0.0609
      3 C         142.3077  141.4089  162.6388 C.3     1  UNL1        0.0758
      4 N         143.2170  142.5994  162.5613 N.3     1  UNL1       -0.2724
      5 C         144.1861  142.8765  163.6722 C.3     1  UNL1        0.0758
      6 C         144.2458  141.9632  164.8607 C.3     1  UNL1        0.0609
      7 O         143.3962  139.8595  166.1265 O.3     1  UNL1       -0.4790
      8 C         141.0601  140.8478  169.8435 C.ar    1  UNL1        0.0177
      9 C         141.7958  139.5443  169.7444 C.ar    1  UNL1        0.0021
     10 C         142.5745  139.2149  168.5054 C.ar    1  UNL1        0.0367
     11 C         142.6175  140.1889  167.3655 C.ar    1  UNL1        0.1392
     12 C         141.8819  141.4923  167.4646 C.ar    1  UNL1        0.0480
     13 C         141.1032  141.8218  168.7035 C.ar    1  UNL1        0.0590
     14 CL        140.3675  143.1253  168.8026 Cl      1  UNL1       -0.0824
     15 O         140.7901  142.2202  172.0328 O.3     1  UNL1       -0.3772
     16 C         140.2814  141.1772  171.0824 C.3     1  UNL1        0.1644
     17 H         140.1725  142.3098  172.7754 H       1  UNL1        0.2109
     18 C         143.1573  143.5127  161.3728 C.3     1  UNL1        0.0721
     19 C         141.9514  144.3767  161.1508 C.3     1  UNL1        0.0187
     20 C         141.2756  145.0352  162.3168 C.3     1  UNL1        0.0185
     21 C         140.0697  145.8991  162.0948 C.3     1  UNL1        0.0686
     22 N         139.5396  146.1046  160.7066 N.3     1  UNL1       -0.2975
     23 C         140.2154  145.4461  159.5406 C.3     1  UNL1        0.0686
     24 C         141.4214  144.5821  159.7627 C.3     1  UNL1        0.0185
     25 H         139.5592  147.1090  160.5296 H       1  UNL1        0.1232
@<TRIPOS>BOND
     1    15    16    1
     2    16     8    1
     3     8     9   ar
     4     9    10   ar
     5    10    11   ar
     6    11     7    1
     7     7     1    1
     8     1     2    1
     9     2     3    1
    10     3     4    1
    11     4    18    1
    12    18    19    1
    13    19    20    1
    14    20    21    1
    15    21    22    1
    16    22    23    1
    17    23    24    1
    18     4     5    1
    19     5     6    1
    20    11    12   ar
    21    12    13   ar
    22    13    14    1
    23    13     8   ar
    24     6     1    1
    25    24    19    1
    26    15    17    1
    27    22    25    1
@<TRIPOS>MOLECULE
*****
 25 27 0 0 0
SMALL
GASTEIGER

@<TRIPOS>ATOM
      1 C         138.6160  142.5999  164.7018 C.3     1  UNL1        0.1687
      2 C         138.1089  141.1882  164.7103 C.3     1  UNL1        0.0609
      3 C         138.7166  140.1786  165.6384 C.3     1  UNL1        0.0758
      4 N         139.8313  140.5806  166.5580 N.3     1  UNL1       -0.2724
      5 C         140.3384  141.9922  166.5496 C.3     1  UNL1        0.0758
      6 C         139.7308  143.0019  165.6214 C.3     1  UNL1        0.0609
      7 O         138.0084  143.6095  163.7736 O.3     1  UNL1       -0.4790
      8 C         140.2536  144.9305  160.1043 C.ar    1  UNL1        0.0177
      9 C         140.1051  145.8637  161.2692 C.ar    1  UNL1        0.0021
     10 C         139.3567  145.4234  162.4923 C.ar    1  UNL1        0.0367
     11 C         138.7568  144.0498  162.5505 C.ar    1  UNL1        0.1392
     12 C         138.9053  143.1166  161.3856 C.ar    1  UNL1        0.0480
     13 C         139.6537  143.5569  160.1625 C.ar    1  UNL1        0.0590
     14 CL        139.8022  142.6236  158.9976 Cl      1  UNL1       -0.0824
     15 O         142.4207  144.9312  158.6712 O.3     1  UNL1       -0.3772
     16 C         141.0021  145.3708  158.8812 C.3     1  UNL1        0.1644
     17 H         142.7540  145.3012  157.8388 H       1  UNL1        0.2109
     18 C         140.4389  139.5709  167.4862 C.3     1  UNL1        0.0721
     19 C         140.9699  140.0031  168.8208 C.3     1  UNL1        0.0187
     20 C         140.0263  140.4809  169.8845 C.3     1  UNL1        0.0185
     21 C         140.5573  140.9131  171.2191 C.3     1  UNL1        0.0686
     22 N         142.0320  140.8675  171.4901 N.3     1  UNL1       -0.2975
     23 C         142.9756  140.3897  170.4264 C.3     1  UNL1        0.0686
     24 C         142.4445  139.9575  169.0918 C.3     1  UNL1        0.0185
     25 H         142.1644  140.2575  172.2968 H       1  UNL1        0.1232
@<TRIPOS>BOND
     1    15    16    1
     2    16     8    1
     3     8     9   ar
     4     9    10   ar
     5    10    11   ar
     6    11     7    1
     7     7     1    1
     8     1     2    1
     9     2     3    1
    10     3     4    1
    11     4    18    1
    12    18    19    1
    13    19    20    1
    14    20    21    1
    15    21    22    1
    16    22    23    1
    17    23    24    1
    18     4     5    1
    19     5     6    1
    20    11    12   ar
    21    12    13   ar
    22    13    14    1
    23    13     8   ar
    24     6     1    1
    25    24    19    1
    26    15    17    1
    27    22    25    1
@<TRIPOS>MOLECULE
*****
 25 27 0 0 0
SMALL
GASTEIGER

@<TRIPOS>ATOM
      1 C         138.5980  139.0815  165.7351 C.3     1  UNL1        0.1687
      2 C         138.9429  137.7277  165.1886 C.3     1  UNL1        0.0609
      3 C         138.8950  137.4814  163.7097 C.3     1  UNL1        0.0758
      4 N         138.5022  138.5888  162.7773 N.3     1  UNL1       -0.2724
      5 C         138.1574  139.9425  163.3237 C.3     1  UNL1        0.0758
      6 C         138.2053  140.1888  164.8026 C.3     1  UNL1        0.0609
      7 O         138.6459  139.3277  167.2139 O.3     1  UNL1       -0.4790
      8 C         142.0420  141.6833  168.9938 C.ar    1  UNL1        0.0177
      9 C         142.1769  141.0929  167.6215 C.ar    1  UNL1        0.0021
     10 C         141.0449  140.3077  167.0282 C.ar    1  UNL1        0.0367
     11 C         139.7780  140.1129  167.8072 C.ar    1  UNL1        0.1392
     12 C         139.6430  140.7033  169.1795 C.ar    1  UNL1        0.0480
     13 C         140.7750  141.4885  169.7728 C.ar    1  UNL1        0.0590
     14 CL        140.6401  142.0789  171.1451 Cl      1  UNL1       -0.0824
     15 O         144.1951  141.7813  170.4444 O.3     1  UNL1       -0.3772
     16 C         143.1740  142.4685  169.5871 C.3     1  UNL1        0.1644
     17 H         144.8527  142.4279  170.7451 H       1  UNL1        0.2109
     18 C         138.4543  138.3425  161.2984 C.3     1  UNL1        0.0721
     19 C         139.7126  138.4137  160.4851 C.3     1  UNL1        0.0187
     20 C         139.6366  138.6369  159.0037 C.3     1  UNL1        0.0185
     21 C         140.8949  138.7081  158.1904 C.3     1  UNL1        0.0686
     22 N         142.2293  138.5562  158.8584 N.3     1  UNL1       -0.2975
     23 C         142.3054  138.3331  160.3398 C.3     1  UNL1        0.0686
     24 C         141.0470  138.2618  161.1531 C.3     1  UNL1        0.0185
     25 H         142.7558  139.4074  158.6614 H       1  UNL1        0.1232
@<TRIPOS>BOND
     1    15    16    1
     2    16     8    1
     3     8     9   ar
     4     9    10   ar
     5    10    11   ar
     6    11     7    1
     7     7     1    1
     8     1     2    1
     9     2     3    1
    10     3     4    1
    11     4    18    1
    12    18    19    1
    13    19    20    1
    14    20    21    1
    15    21    22    1
    16    22    23    1
    17    23    24    1
    18     4     5    1
    19     5     6    1
    20    11    12   ar
    21    12    13   ar
    22    13    14    1
    23    13     8   ar
    24     6     1    1
    25    24    19    1
    26    15    17    1
    27    22    25    1
@<TRIPOS>MOLECULE
*****
 25 27 0 0 0
SMALL
GASTEIGER

@<TRIPOS>ATOM
      1 C         139.1920  139.9266  164.7824 C.3     1  UNL1        0.1687
      2 C         138.0895  140.9357  164.6549 C.3     1  UNL1        0.0609
      3 C         137.9039  141.6854  163.3690 C.3     1  UNL1        0.0758
      4 N         138.8208  141.4260  162.2106 N.3     1  UNL1       -0.2724
      5 C         139.9233  140.4169  162.3380 C.3     1  UNL1        0.0758
      6 C         140.1089  139.6672  163.6239 C.3     1  UNL1        0.0609
      7 O         139.3776  139.1769  166.0682 O.3     1  UNL1       -0.4790
      8 C         140.8821  141.3223  169.7266 C.ar    1  UNL1        0.0177
      9 C         139.5495  140.6343  169.7555 C.ar    1  UNL1        0.0021
     10 C         139.0480  139.9192  168.5361 C.ar    1  UNL1        0.0367
     11 C         139.8791  139.8920  167.2877 C.ar    1  UNL1        0.1392
     12 C         141.2117  140.5800  167.2587 C.ar    1  UNL1        0.0480
     13 C         141.7132  141.2951  168.4782 C.ar    1  UNL1        0.0590
     14 CL        143.0458  141.9831  168.4492 Cl      1  UNL1       -0.0824
     15 O         140.4993  142.1789  172.1493 O.3     1  UNL1       -0.3772
     16 C         141.3836  142.0374  170.9460 C.3     1  UNL1        0.1644
     17 H         140.9731  142.6631  172.8436 H       1  UNL1        0.2109
     18 C         138.6352  142.1757  160.9246 C.3     1  UNL1        0.0721
     19 C         139.5626  143.3006  160.5718 C.3     1  UNL1        0.0187
     20 C         140.2751  143.2993  159.2518 C.3     1  UNL1        0.0185
     21 C         141.2024  144.4242  158.8990 C.3     1  UNL1        0.0686
     22 N         141.4172  145.5506  159.8661 N.3     1  UNL1       -0.2975
     23 C         140.7047  145.5519  161.1861 C.3     1  UNL1        0.0686
     24 C         139.7773  144.4269  161.5389 C.3     1  UNL1        0.0185
     25 H         141.1464  146.4080  159.3844 H       1  UNL1        0.1232
@<TRIPOS>BOND
     1    15    16    1
     2    16     8    1
     3     8     9   ar
     4     9    10   ar
     5    10    11   ar
     6    11     7    1
     7     7     1    1
     8     1     2    1
     9     2     3    1
    10     3     4    1
    11     4    18    1
    12    18    19    1
    13    19    20    1
    14    20    21    1
    15    21    22    1
    16    22    23    1
    17    23    24    1
    18     4     5    1
    19     5     6    1
    20    11    12   ar
    21    12    13   ar
    22    13    14    1
    23    13     8   ar
    24     6     1    1
    25    24    19    1
    26    15    17    1
    27    22    25    1
@<TRIPOS>MOLECULE
*****
 25 27 0 0 0
SMALL
GASTEIGER

@<TRIPOS>ATOM
      1 C         143.3458  141.0925  164.9076 C.3     1  UNL1        0.1687
      2 C         144.2037  142.3017  164.6798 C.3     1  UNL1        0.0609
      3 C         144.2036  142.9801  163.3420 C.3     1  UNL1        0.0758
      4 N         143.3456  142.4493  162.2320 N.3     1  UNL1       -0.2724
      5 C         142.4877  141.2402  162.4598 C.3     1  UNL1        0.0758
      6 C         142.4878  140.5617  163.7976 C.3     1  UNL1        0.0609
      7 O         143.3459  140.4141  166.2454 O.3     1  UNL1       -0.4790
      8 C         140.8433  142.0607  169.6034 C.ar    1  UNL1        0.0177
      9 C         142.1533  142.7049  169.2587 C.ar    1  UNL1        0.0021
     10 C         142.9875  142.1561  168.1394 C.ar    1  UNL1        0.0367
     11 C         142.5117  140.9630  167.3648 C.ar    1  UNL1        0.1392
     12 C         141.2017  140.3187  167.7094 C.ar    1  UNL1        0.0480
     13 C         140.3675  140.8676  168.8288 C.ar    1  UNL1        0.0590
     14 CL        139.0574  140.2233  169.1734 Cl      1  UNL1       -0.0824
     15 O         140.3216  142.2393  172.1423 O.3     1  UNL1       -0.3772
     16 C         140.0091  142.6096  170.7227 C.3     1  UNL1        0.1644
     17 H         139.6917  142.6762  172.7365 H       1  UNL1        0.2109
     18 C         143.3456  143.1278  160.8941 C.3     1  UNL1        0.0721
     19 C         142.2005  144.0139  160.5027 C.3     1  UNL1        0.0187
     20 C         141.8640  144.2087  159.0539 C.3     1  UNL1        0.0185
     21 C         140.7189  145.0949  158.6624 C.3     1  UNL1        0.0686
     22 N         139.9101  145.7864  159.7197 N.3     1  UNL1       -0.2975
     23 C         140.2465  145.5916  161.1685 C.3     1  UNL1        0.0686
     24 C         141.3917  144.7053  161.5599 C.3     1  UNL1        0.0185
     25 H         138.9444  145.4815  159.5981 H       1  UNL1        0.1232
@<TRIPOS>BOND
     1    15    16    1
     2    16     8    1
     3     8     9   ar
     4     9    10   ar
     5    10    11   ar
     6    11     7    1
     7     7     1    1
     8     1     2    1
     9     2     3    1
    10     3     4    1
    11     4    18    1
    12    18    19    1
    13    19    20    1
    14    20    21    1
    15    21    22    1
    16    22    23    1
    17    23    24    1
    18     4     5    1
    19     5     6    1
    20    11    12   ar
    21    12    13   ar
    22    13    14    1
    23    13     8   ar
    24     6     1    1
    25    24    19    1
    26    15    17    1
    27    22    25    1
@<TRIPOS>MOLECULE
*****
 25 27 0 0 0
SMALL
GASTEIGER

@<TRIPOS>ATOM
      1 C         138.7020  144.1015  162.3858 C.3     1  UNL1        0.1687
      2 C         138.5103  143.0290  161.3547 C.3     1  UNL1        0.0609
      3 C         139.1182  143.1815  159.9919 C.3     1  UNL1        0.0758
      4 N         139.9177  144.4065  159.6601 N.3     1  UNL1       -0.2724
      5 C         140.1094  145.4790  160.6911 C.3     1  UNL1        0.0758
      6 C         139.5015  145.3265  162.0540 C.3     1  UNL1        0.0609
      7 O         138.0941  143.9490  163.7485 O.3     1  UNL1       -0.4790
      8 C         139.8095  140.9748  166.6574 C.ar    1  UNL1        0.0177
      9 C         140.3013  142.3919  166.6560 C.ar    1  UNL1        0.0021
     10 C         139.7295  143.3833  165.6864 C.ar    1  UNL1        0.0367
     11 C         138.6659  142.9576  164.7182 C.ar    1  UNL1        0.1392
     12 C         138.1741  141.5406  164.7196 C.ar    1  UNL1        0.0480
     13 C         138.7459  140.5492  165.6892 C.ar    1  UNL1        0.0590
     14 CL        138.2540  139.1321  165.6906 Cl      1  UNL1       -0.0824
     15 O         139.6965  139.7365  168.9386 O.3     1  UNL1       -0.3772
     16 C         140.3813  139.9834  167.6271 C.3     1  UNL1        0.1644
     17 H         140.1925  139.0722  169.4422 H       1  UNL1        0.2109
     18 C         140.5256  144.5589  158.2973 C.3     1  UNL1        0.0721
     19 C         139.7222  145.1563  157.1803 C.3     1  UNL1        0.0187
     20 C         139.7904  146.6306  156.9125 C.3     1  UNL1        0.0185
     21 C         138.9870  147.2279  155.7955 C.3     1  UNL1        0.0686
     22 N         138.1154  146.3509  154.9462 N.3     1  UNL1       -0.2975
     23 C         138.0472  144.8766  155.2140 C.3     1  UNL1        0.0686
     24 C         138.8507  144.2793  156.3310 C.3     1  UNL1        0.0185
     25 H         138.4355  146.4610  153.9840 H       1  UNL1        0.1232
@<TRIPOS>BOND
     1    15    16    1
     2    16     8    1
     3     8     9   ar
     4     9    10   ar
     5    10    11   ar
     6    11     7    1
     7     7     1    1
     8     1     2    1
     9     2     3    1
    10     3     4    1
    11     4    18    1
    12    18    19    1
    13    19    20    1
    14    20    21    1
    15    21    22    1
    16    22    23    1
    17    23    24    1
    18     4     5    1
    19     5     6    1
    20    11    12   ar
    21    12    13   ar
    22    13    14    1
    23    13     8   ar
    24     6     1    1
    25    24    19    1
    26    15    17    1
    27    22    25    1
@<TRIPOS>MOLECULE
*****
 25 27 0 0 0
SMALL
GASTEIGER

@<TRIPOS>ATOM
      1 C         142.9429  138.4111  165.4462 C.3     1  UNL1        0.1687
      2 C         141.7263  137.6061  165.0968 C.3     1  UNL1        0.0609
      3 C         141.3135  137.4550  163.6627 C.3     1  UNL1        0.0758
      4 N         142.1172  138.1087  162.5780 N.3     1  UNL1       -0.2724
      5 C         143.3337  138.9136  162.9273 C.3     1  UNL1        0.0758
      6 C         143.7466  139.0648  164.3615 C.3     1  UNL1        0.0609
      7 O         143.3558  138.5622  166.8803 O.3     1  UNL1       -0.4790
      8 C         141.0799  141.3357  169.5966 C.ar    1  UNL1        0.0177
      9 C         141.7583  140.1228  170.1609 C.ar    1  UNL1        0.0021
     10 C         142.5169  139.1983  169.2555 C.ar    1  UNL1        0.0367
     11 C         142.5972  139.4867  167.7857 C.ar    1  UNL1        0.1392
     12 C         141.9188  140.6997  167.2214 C.ar    1  UNL1        0.0480
     13 C         141.1602  141.6242  168.1268 C.ar    1  UNL1        0.0590
     14 CL        140.4819  142.8372  167.5624 Cl      1  UNL1       -0.0824
     15 O         140.4826  142.1527  171.9894 O.3     1  UNL1       -0.3772
     16 C         140.3213  142.2602  170.5020 C.3     1  UNL1        0.1644
     17 H         139.9265  142.8183  172.4238 H       1  UNL1        0.2109
     18 C         141.7043  137.9576  161.1438 C.3     1  UNL1        0.0721
     19 C         140.5482  138.7494  160.6087 C.3     1  UNL1        0.0187
     20 C         140.7537  139.6964  159.4637 C.3     1  UNL1        0.0185
     21 C         139.5976  140.4883  158.9287 C.3     1  UNL1        0.0686
     22 N         138.2359  140.3331  159.5386 N.3     1  UNL1       -0.2975
     23 C         138.0304  139.3862  160.6836 C.3     1  UNL1        0.0686
     24 C         139.1866  138.5943  161.2186 C.3     1  UNL1        0.0185
     25 H         137.6111  140.0313  158.7910 H       1  UNL1        0.1232
@<TRIPOS>BOND
     1    15    16    1
     2    16     8    1
     3     8     9   ar
     4     9    10   ar
     5    10    11   ar
     6    11     7    1
     7     7     1    1
     8     1     2    1
     9     2     3    1
    10     3     4    1
    11     4    18    1
    12    18    19    1
    13    19    20    1
    14    20    21    1
    15    21    22    1
    16    22    23    1
    17    23    24    1
    18     4     5    1
    19     5     6    1
    20    11    12   ar
    21    12    13   ar
    22    13    14    1
    23    13     8   ar
    24     6     1    1
    25    24    19    1
    26    15    17    1
    27    22    25    1
