@<TRIPOS>MOLECULE
*****
 32 36 0 0 0
SMALL
GASTEIGER

@<TRIPOS>ATOM
      1 C         140.1985  138.6193  161.0082 C.ar    1  UNL1        0.2014
      2 N         139.3689  138.8980  159.7900 N.ar    1  UNL1       -0.2136
      3 C         140.2363  138.6979  158.5827 C.ar    1  UNL1        0.0999
      4 C         139.9589  138.8302  157.1145 C.ar    1  UNL1        0.0207
      5 C         141.0474  138.5601  156.1184 C.ar    1  UNL1        0.0016
      6 C         142.4131  138.1577  156.5904 C.ar    1  UNL1        0.0016
      7 C         142.6905  138.0255  158.0586 C.ar    1  UNL1        0.0188
      8 C         141.6021  138.2956  159.0547 C.ar    1  UNL1        0.0801
      9 N         141.5787  138.2470  160.5537 N.ar    1  UNL1       -0.2954
     10 C         138.7937  138.8581  165.2766 C.3     1  UNL1        0.0610
     11 C         139.4979  137.6277  164.7865 C.3     1  UNL1        0.0375
     12 C         139.9662  137.5481  163.3637 C.3     1  UNL1        0.0949
     13 N         139.7303  138.6989  162.4310 N.pl3   1  UNL1       -0.2794
     14 C         139.0260  139.9292  162.9211 C.3     1  UNL1        0.0949
     15 C         138.5577  140.0088  164.3439 C.3     1  UNL1        0.0375
     16 C         137.3081  137.9607  167.2100 C.3     1  UNL1        0.0896
     17 N         138.3254  138.9377  166.6994 N.3     1  UNL1       -0.2727
     18 C         138.8744  139.9942  167.6117 C.3     1  UNL1        0.0722
     19 C         140.2753  139.8790  168.1354 C.3     1  UNL1        0.0210
     20 C         140.5254  139.8780  169.6143 C.3     1  UNL1        0.0335
     21 C         141.9263  139.7628  170.1380 C.3     1  UNL1        0.1422
     22 O         143.0770  139.6484  169.1827 O.3     1  UNL1       -0.3538
     23 C         142.8269  139.6493  167.7037 C.3     1  UNL1        0.1422
     24 C         141.4261  139.7646  167.1800 C.3     1  UNL1        0.0335
     25 C         142.7329  137.8889  161.4423 C.3     1  UNL1        0.1354
     26 C         143.4982  138.9680  162.1492 C.ar    1  UNL1        0.0006
     27 C         143.7094  138.8893  163.6323 C.ar    1  UNL1       -0.0001
     28 C         144.4747  139.9684  164.3392 C.ar    1  UNL1        0.0294
     29 C         145.0288  141.1263  163.5632 C.ar    1  UNL1        0.1401
     30 F         145.7941  142.2054  164.2702 F       1  UNL1       -0.2042
     31 C         144.8177  141.2050  162.0802 C.ar    1  UNL1        0.0294
     32 C         144.0524  140.1259  161.3732 C.ar    1  UNL1       -0.0001
@<TRIPOS>BOND
     1    16    17    1
     2    17    18    1
     3    18    19    1
     4    19    20    1
     5    20    21    1
     6    21    22    1
     7    22    23    1
     8    23    24    1
     9    17    10    1
    10    10    11    1
    11    11    12    1
    12    12    13    1
    13    13     1    1
    14     1     2   ar
    15     2     3   ar
    16     3     4   ar
    17     4     5   ar
    18     5     6   ar
    19     6     7   ar
    20     7     8   ar
    21     8     9   ar
    22     9    25    1
    23    25    26    1
    24    26    27   ar
    25    27    28   ar
    26    28    29   ar
    27    29    30    1
    28    29    31   ar
    29    31    32   ar
    30    13    14    1
    31    14    15    1
    32    24    19    1
    33    15    10    1
    34     9     1   ar
    35    32    26   ar
    36     8     3   ar
@<TRIPOS>MOLECULE
*****
 32 36 0 0 0
SMALL
GASTEIGER

@<TRIPOS>ATOM
      1 C         142.0807  141.0621  165.9924 C.ar    1  UNL1        0.2014
      2 N         143.1964  141.0902  166.9946 N.ar    1  UNL1       -0.2136
      3 C         142.7377  141.8916  168.1767 C.ar    1  UNL1        0.0999
      4 C         143.4133  142.2563  169.4653 C.ar    1  UNL1        0.0207
      5 C         142.6897  143.0882  170.4823 C.ar    1  UNL1        0.0016
      6 C         141.2905  143.5555  170.2106 C.ar    1  UNL1        0.0016
      7 C         140.6149  143.1908  168.9220 C.ar    1  UNL1        0.0188
      8 C         141.3385  142.3589  167.9051 C.ar    1  UNL1        0.0801
      9 N         140.9324  141.8463  166.5551 N.ar    1  UNL1       -0.2954
     10 C         142.1638  138.9896  161.9990 C.3     1  UNL1        0.0610
     11 C         141.6933  138.2518  163.2173 C.3     1  UNL1        0.0375
     12 C         141.6656  138.9426  164.5484 C.3     1  UNL1        0.0949
     13 N         142.1084  140.3713  164.6613 N.pl3   1  UNL1       -0.2794
     14 C         142.5788  141.1091  163.4430 C.3     1  UNL1        0.0949
     15 C         142.6065  140.4183  162.1119 C.3     1  UNL1        0.0375
     16 C         143.3461  137.4119  160.3070 C.3     1  UNL1        0.0896
     17 N         142.1914  138.2987  160.6678 N.3     1  UNL1       -0.2727
     18 C         141.0645  138.4947  159.6975 C.3     1  UNL1        0.0722
     19 C         139.8020  139.1723  160.1413 C.3     1  UNL1        0.0210
     20 C         139.5764  140.6207  159.8234 C.3     1  UNL1        0.0335
     21 C         138.3139  141.2982  160.2672 C.3     1  UNL1        0.1422
     22 O         137.2769  140.5273  161.0289 O.3     1  UNL1       -0.3538
     23 C         137.5024  139.0788  161.3469 C.3     1  UNL1        0.1422
     24 C         138.7649  138.4012  160.9031 C.3     1  UNL1        0.0335
     25 C         139.6102  142.0772  165.8855 C.3     1  UNL1        0.1354
     26 C         139.4768  143.1398  164.8353 C.ar    1  UNL1        0.0006
     27 C         138.1832  143.3033  164.0937 C.ar    1  UNL1       -0.0001
     28 C         138.0497  144.3659  163.0435 C.ar    1  UNL1        0.0294
     29 C         139.2099  145.2651  162.7348 C.ar    1  UNL1        0.1401
     30 F         139.0764  146.3278  161.6846 F       1  UNL1       -0.2042
     31 C         140.5035  145.1017  163.4763 C.ar    1  UNL1        0.0294
     32 C         140.6370  144.0391  164.5266 C.ar    1  UNL1       -0.0001
@<TRIPOS>BOND
     1    16    17    1
     2    17    18    1
     3    18    19    1
     4    19    20    1
     5    20    21    1
     6    21    22    1
     7    22    23    1
     8    23    24    1
     9    17    10    1
    10    10    11    1
    11    11    12    1
    12    12    13    1
    13    13     1    1
    14     1     2   ar
    15     2     3   ar
    16     3     4   ar
    17     4     5   ar
    18     5     6   ar
    19     6     7   ar
    20     7     8   ar
    21     8     9   ar
    22     9    25    1
    23    25    26    1
    24    26    27   ar
    25    27    28   ar
    26    28    29   ar
    27    29    30    1
    28    29    31   ar
    29    31    32   ar
    30    13    14    1
    31    14    15    1
    32    24    19    1
    33    15    10    1
    34     9     1   ar
    35    32    26   ar
    36     8     3   ar
@<TRIPOS>MOLECULE
*****
 32 36 0 0 0
SMALL
GASTEIGER

@<TRIPOS>ATOM
      1 C         140.3674  140.0452  166.3107 C.ar    1  UNL1        0.2014
      2 N         139.3874  140.2572  167.4264 N.ar    1  UNL1       -0.2136
      3 C         140.1607  140.3785  168.7059 C.ar    1  UNL1        0.0999
      4 C         139.7257  140.5960  170.1249 C.ar    1  UNL1        0.0207
      5 C         140.7486  140.6766  171.2189 C.ar    1  UNL1        0.0016
      6 C         142.2066  140.5396  170.8941 C.ar    1  UNL1        0.0016
      7 C         142.6417  140.3220  169.4752 C.ar    1  UNL1        0.0188
      8 C         141.6187  140.2415  168.3811 C.ar    1  UNL1        0.0801
      9 N         141.7464  140.0355  166.9008 N.ar    1  UNL1       -0.2954
     10 C         139.3491  139.5289  161.9580 C.3     1  UNL1        0.0610
     11 C         139.8442  140.8526  162.4605 C.3     1  UNL1        0.0375
     12 C         140.1836  141.0247  163.9114 C.3     1  UNL1        0.0949
     13 N         140.0279  139.8731  164.8598 N.pl3   1  UNL1       -0.2794
     14 C         139.5328  138.5494  164.3573 C.3     1  UNL1        0.0949
     15 C         139.1934  138.3773  162.9064 C.3     1  UNL1        0.0375
     16 C         137.7089  139.8800  159.9739 C.3     1  UNL1        0.0896
     17 N         139.0096  139.3568  160.5071 N.3     1  UNL1       -0.2727
     18 C         139.9709  138.6614  159.5893 C.3     1  UNL1        0.0722
     19 C         141.4478  138.7703  159.8279 C.3     1  UNL1        0.0210
     20 C         142.1347  137.7943  160.7364 C.3     1  UNL1        0.0335
     21 C         143.6116  137.9031  160.9750 C.3     1  UNL1        0.1422
     22 O         144.4016  138.9881  160.3051 O.3     1  UNL1       -0.3538
     23 C         143.7146  139.9642  159.3966 C.3     1  UNL1        0.1422
     24 C         142.2378  139.8553  159.1580 C.3     1  UNL1        0.0335
     25 C         143.0282  139.8520  166.1435 C.3     1  UNL1        0.1354
     26 C         143.4882  140.9064  165.1810 C.ar    1  UNL1        0.0006
     27 C         143.8752  140.5276  163.7821 C.ar    1  UNL1       -0.0001
     28 C         144.3353  141.5820  162.8196 C.ar    1  UNL1        0.0294
     29 C         144.4083  143.0153  163.2559 C.ar    1  UNL1        0.1401
     30 F         144.8684  144.0697  162.2933 F       1  UNL1       -0.2042
     31 C         144.0213  143.3942  164.6546 C.ar    1  UNL1        0.0294
     32 C         143.5612  142.3398  165.6172 C.ar    1  UNL1       -0.0001
@<TRIPOS>BOND
     1    16    17    1
     2    17    18    1
     3    18    19    1
     4    19    20    1
     5    20    21    1
     6    21    22    1
     7    22    23    1
     8    23    24    1
     9    17    10    1
    10    10    11    1
    11    11    12    1
    12    12    13    1
    13    13     1    1
    14     1     2   ar
    15     2     3   ar
    16     3     4   ar
    17     4     5   ar
    18     5     6   ar
    19     6     7   ar
    20     7     8   ar
    21     8     9   ar
    22     9    25    1
    23    25    26    1
    24    26    27   ar
    25    27    28   ar
    26    28    29   ar
    27    29    30    1
    28    29    31   ar
    29    31    32   ar
    30    13    14    1
    31    14    15    1
    32    24    19    1
    33    15    10    1
    34     9     1   ar
    35    32    26   ar
    36     8     3   ar
@<TRIPOS>MOLECULE
*****
 32 36 0 0 0
SMALL
GASTEIGER

@<TRIPOS>ATOM
      1 C         139.9432  138.4910  162.0212 C.ar    1  UNL1        0.2014
      2 N         139.6206  137.2902  162.8603 N.ar    1  UNL1       -0.2136
      3 C         139.0346  137.7726  164.1541 C.ar    1  UNL1        0.0999
      4 C         138.5319  137.0406  165.3630 C.ar    1  UNL1        0.0207
      5 C         137.9896  137.8075  166.5324 C.ar    1  UNL1        0.0016
      6 C         137.9500  139.3065  166.4930 C.ar    1  UNL1        0.0016
      7 C         138.4526  140.0385  165.2841 C.ar    1  UNL1        0.0188
      8 C         138.9949  139.2715  164.1146 C.ar    1  UNL1        0.0801
      9 N         139.5565  139.7155  162.7965 N.ar    1  UNL1       -0.2954
     10 C         141.7532  138.4305  157.9017 C.3     1  UNL1        0.0610
     11 C         142.6388  138.3731  159.1110 C.3     1  UNL1        0.0375
     12 C         142.0355  138.3933  160.4841 C.3     1  UNL1        0.0949
     13 N         140.5465  138.4708  160.6481 N.pl3   1  UNL1       -0.2794
     14 C         139.6609  138.5282  159.4388 C.3     1  UNL1        0.0949
     15 C         140.2642  138.5080  158.0657 C.3     1  UNL1        0.0375
     16 C         141.9981  139.4764  155.5362 C.3     1  UNL1        0.0896
     17 N         142.3565  138.4103  156.5286 N.3     1  UNL1       -0.2727
     18 C         143.3182  137.3240  156.1478 C.3     1  UNL1        0.0722
     19 C         142.8848  135.8887  156.1932 C.3     1  UNL1        0.0210
     20 C         141.7883  135.4075  155.2899 C.3     1  UNL1        0.0335
     21 C         141.3549  133.9722  155.3353 C.3     1  UNL1        0.1422
     22 O         142.0179  133.0182  156.2841 O.3     1  UNL1       -0.3538
     23 C         143.1145  133.4994  157.1875 C.3     1  UNL1        0.1422
     24 C         143.5479  134.9347  157.1421 C.3     1  UNL1        0.0335
     25 C         139.7052  141.1349  162.3347 C.3     1  UNL1        0.1354
     26 C         139.3707  142.2646  163.2629 C.ar    1  UNL1        0.0006
     27 C         140.4068  142.7854  164.2145 C.ar    1  UNL1       -0.0001
     28 C         140.0723  143.9151  165.1428 C.ar    1  UNL1        0.0294
     29 C         138.7017  144.5242  165.1195 C.ar    1  UNL1        0.1401
     30 F         138.3672  145.6540  166.0478 F       1  UNL1       -0.2042
     31 C         137.6657  144.0035  164.1680 C.ar    1  UNL1        0.0294
     32 C         138.0001  142.8737  163.2397 C.ar    1  UNL1       -0.0001
@<TRIPOS>BOND
     1    16    17    1
     2    17    18    1
     3    18    19    1
     4    19    20    1
     5    20    21    1
     6    21    22    1
     7    22    23    1
     8    23    24    1
     9    17    10    1
    10    10    11    1
    11    11    12    1
    12    12    13    1
    13    13     1    1
    14     1     2   ar
    15     2     3   ar
    16     3     4   ar
    17     4     5   ar
    18     5     6   ar
    19     6     7   ar
    20     7     8   ar
    21     8     9   ar
    22     9    25    1
    23    25    26    1
    24    26    27   ar
    25    27    28   ar
    26    28    29   ar
    27    29    30    1
    28    29    31   ar
    29    31    32   ar
    30    13    14    1
    31    14    15    1
    32    24    19    1
    33    15    10    1
    34     9     1   ar
    35    32    26   ar
    36     8     3   ar
@<TRIPOS>MOLECULE
*****
 32 36 0 0 0
SMALL
GASTEIGER

@<TRIPOS>ATOM
      1 C         141.6009  139.6193  160.6972 C.ar    1  UNL1        0.2014
      2 N         142.7310  139.3355  159.7526 N.ar    1  UNL1       -0.2136
      3 C         142.1651  138.6459  158.5467 C.ar    1  UNL1        0.0999
      4 C         142.8061  138.1292  157.2929 C.ar    1  UNL1        0.0207
      5 C         141.9673  137.4701  156.2384 C.ar    1  UNL1        0.0016
      6 C         140.4874  137.3277  156.4378 C.ar    1  UNL1        0.0016
      7 C         139.8464  137.8444  157.6916 C.ar    1  UNL1        0.0188
      8 C         140.6852  138.5035  158.7460 C.ar    1  UNL1        0.0801
      9 N         140.3366  139.1051  160.0751 N.ar    1  UNL1       -0.2954
     10 C         141.9435  141.6558  164.6954 C.3     1  UNL1        0.0610
     11 C         142.2560  140.1942  164.5690 C.3     1  UNL1        0.0375
     12 C         142.1418  139.5154  163.2362 C.3     1  UNL1        0.0949
     13 N         141.7151  140.2981  162.0299 N.pl3   1  UNL1       -0.2794
     14 C         141.4026  141.7597  162.1564 C.3     1  UNL1        0.0949
     15 C         141.5169  142.4386  163.4891 C.3     1  UNL1        0.0375
     16 C         143.3968  142.4648  166.6912 C.3     1  UNL1        0.0896
     17 N         142.0577  142.3346  166.0281 N.3     1  UNL1       -0.2727
     18 C         140.8328  142.8833  166.6977 C.3     1  UNL1        0.0722
     19 C         140.4189  142.3669  168.0438 C.3     1  UNL1        0.0210
     20 C         140.3868  143.2916  169.2245 C.3     1  UNL1        0.0335
     21 C         139.9729  142.7752  170.5706 C.3     1  UNL1        0.1422
     22 O         139.5912  141.3341  170.7361 O.3     1  UNL1       -0.3538
     23 C         139.6232  140.4093  169.5554 C.3     1  UNL1        0.1422
     24 C         140.0371  140.9257  168.2093 C.3     1  UNL1        0.0335
     25 C         138.9644  139.1794  160.6765 C.3     1  UNL1        0.1354
     26 C         138.7894  139.0663  162.1619 C.ar    1  UNL1        0.0006
     27 C         139.1037  137.7753  162.8581 C.ar    1  UNL1       -0.0001
     28 C         138.9287  137.6622  164.3435 C.ar    1  UNL1        0.0294
     29 C         138.4393  138.8401  165.1329 C.ar    1  UNL1        0.1401
     30 F         138.2643  138.7269  166.6183 F       1  UNL1       -0.2042
     31 C         138.1250  140.1310  164.4368 C.ar    1  UNL1        0.0294
     32 C         138.3000  140.2442  162.9513 C.ar    1  UNL1       -0.0001
@<TRIPOS>BOND
     1    16    17    1
     2    17    18    1
     3    18    19    1
     4    19    20    1
     5    20    21    1
     6    21    22    1
     7    22    23    1
     8    23    24    1
     9    17    10    1
    10    10    11    1
    11    11    12    1
    12    12    13    1
    13    13     1    1
    14     1     2   ar
    15     2     3   ar
    16     3     4   ar
    17     4     5   ar
    18     5     6   ar
    19     6     7   ar
    20     7     8   ar
    21     8     9   ar
    22     9    25    1
    23    25    26    1
    24    26    27   ar
    25    27    28   ar
    26    28    29   ar
    27    29    30    1
    28    29    31   ar
    29    31    32   ar
    30    13    14    1
    31    14    15    1
    32    24    19    1
    33    15    10    1
    34     9     1   ar
    35    32    26   ar
    36     8     3   ar
@<TRIPOS>MOLECULE
*****
 32 36 0 0 0
SMALL
GASTEIGER

@<TRIPOS>ATOM
      1 C         141.6998  139.6916  166.4011 C.ar    1  UNL1        0.2014
      2 N         142.7744  139.5415  167.4367 N.ar    1  UNL1       -0.2136
      3 C         142.2412  140.0649  168.7374 C.ar    1  UNL1        0.0999
      4 C         142.8529  140.1714  170.1028 C.ar    1  UNL1        0.0207
      5 C         142.0604  140.7515  171.2364 C.ar    1  UNL1        0.0016
      6 C         140.6561  141.2251  171.0047 C.ar    1  UNL1        0.0016
      7 C         140.0444  141.1186  169.6393 C.ar    1  UNL1        0.0188
      8 C         140.8369  140.5385  168.5056 C.ar    1  UNL1        0.0801
      9 N         140.5023  140.3078  167.0617 N.ar    1  UNL1       -0.2954
     10 C         142.0130  138.5024  162.0724 C.3     1  UNL1        0.0610
     11 C         141.4658  137.5338  163.0786 C.3     1  UNL1        0.0375
     12 C         141.3614  137.9303  164.5215 C.3     1  UNL1        0.0949
     13 N         141.8042  139.2952  164.9582 N.pl3   1  UNL1       -0.2794
     14 C         142.3514  140.2637  163.9520 C.3     1  UNL1        0.0949
     15 C         142.4558  139.8673  162.5091 C.3     1  UNL1        0.0375
     16 C         143.2817  137.2852  160.1595 C.3     1  UNL1        0.0896
     17 N         142.1174  138.1059  160.6295 N.3     1  UNL1       -0.2727
     18 C         141.0576  138.5302  159.6565 C.3     1  UNL1        0.0722
     19 C         139.8228  139.2255  160.1485 C.3     1  UNL1        0.0210
     20 C         138.7436  138.4416  160.8345 C.3     1  UNL1        0.0335
     21 C         137.5088  139.1369  161.3264 C.3     1  UNL1        0.1422
     22 O         137.3534  140.6161  161.1323 O.3     1  UNL1       -0.3538
     23 C         138.4327  141.4001  160.4463 C.3     1  UNL1        0.1422
     24 C         139.6674  140.7048  159.9544 C.3     1  UNL1        0.0335
     25 C         139.1990  140.6357  166.3955 C.3     1  UNL1        0.1354
     26 C         139.0943  141.8365  165.5027 C.ar    1  UNL1        0.0006
     27 C         137.9775  141.9350  164.5061 C.ar    1  UNL1       -0.0001
     28 C         137.8727  143.1358  163.6132 C.ar    1  UNL1        0.0294
     29 C         138.8848  144.2381  163.7170 C.ar    1  UNL1        0.1401
     30 F         138.7800  145.4388  162.8241 F       1  UNL1       -0.2042
     31 C         140.0015  144.1395  164.7135 C.ar    1  UNL1        0.0294
     32 C         140.1063  142.9388  165.6063 C.ar    1  UNL1       -0.0001
@<TRIPOS>BOND
     1    16    17    1
     2    17    18    1
     3    18    19    1
     4    19    20    1
     5    20    21    1
     6    21    22    1
     7    22    23    1
     8    23    24    1
     9    17    10    1
    10    10    11    1
    11    11    12    1
    12    12    13    1
    13    13     1    1
    14     1     2   ar
    15     2     3   ar
    16     3     4   ar
    17     4     5   ar
    18     5     6   ar
    19     6     7   ar
    20     7     8   ar
    21     8     9   ar
    22     9    25    1
    23    25    26    1
    24    26    27   ar
    25    27    28   ar
    26    28    29   ar
    27    29    30    1
    28    29    31   ar
    29    31    32   ar
    30    13    14    1
    31    14    15    1
    32    24    19    1
    33    15    10    1
    34     9     1   ar
    35    32    26   ar
    36     8     3   ar
@<TRIPOS>MOLECULE
*****
 32 36 0 0 0
SMALL
GASTEIGER

@<TRIPOS>ATOM
      1 C         140.2412  138.5926  162.0901 C.ar    1  UNL1        0.2014
      2 N         139.5703  137.5253  162.9030 N.ar    1  UNL1       -0.2136
      3 C         139.1667  138.1276  164.2162 C.ar    1  UNL1        0.0999
      4 C         138.4699  137.5512  165.4129 C.ar    1  UNL1        0.0207
      5 C         138.1945  138.4144  166.6083 C.ar    1  UNL1        0.0016
      6 C         138.6159  139.8540  166.6070 C.ar    1  UNL1        0.0016
      7 C         139.3127  140.4304  165.4102 C.ar    1  UNL1        0.0188
      8 C         139.5881  139.5672  164.2148 C.ar    1  UNL1        0.0801
      9 N         140.2521  139.8546  162.9009 N.ar    1  UNL1       -0.2954
     10 C         141.9251  138.0959  157.9468 C.3     1  UNL1        0.0610
     11 C         140.4731  138.4233  158.1319 C.3     1  UNL1        0.0375
     12 C         139.9118  138.5889  159.5130 C.3     1  UNL1        0.0949
     13 N         140.8025  138.4271  160.7090 N.pl3   1  UNL1       -0.2794
     14 C         142.2545  138.0996  160.5238 C.3     1  UNL1        0.0949
     15 C         142.8159  137.9341  159.1427 C.3     1  UNL1        0.0375
     16 C         143.6061  138.8134  156.1003 C.3     1  UNL1        0.0896
     17 N         142.4864  137.9304  156.5656 N.3     1  UNL1       -0.2727
     18 C         141.9281  136.8817  155.6499 C.3     1  UNL1        0.0722
     19 C         142.1169  135.4286  155.9703 C.3     1  UNL1        0.0210
     20 C         141.3031  134.3910  155.2553 C.3     1  UNL1        0.0335
     21 C         141.4919  132.9379  155.5757 C.3     1  UNL1        0.1422
     22 O         142.4944  132.5222  156.6112 O.3     1  UNL1       -0.3538
     23 C         143.3082  133.5598  157.3263 C.3     1  UNL1        0.1422
     24 C         143.1194  135.0130  157.0058 C.3     1  UNL1        0.0335
     25 C         140.8263  141.1726  162.4729 C.3     1  UNL1        0.1354
     26 C         141.8818  141.8369  163.3061 C.ar    1  UNL1        0.0006
     27 C         141.8166  143.3136  163.5615 C.ar    1  UNL1       -0.0001
     28 C         142.8721  143.9781  164.3948 C.ar    1  UNL1        0.0294
     29 C         143.9929  143.1658  164.9727 C.ar    1  UNL1        0.1401
     30 F         145.0485  143.8303  165.8060 F       1  UNL1       -0.2042
     31 C         144.0582  141.6892  164.7174 C.ar    1  UNL1        0.0294
     32 C         143.0027  141.0247  163.8841 C.ar    1  UNL1       -0.0001
@<TRIPOS>BOND
     1    16    17    1
     2    17    18    1
     3    18    19    1
     4    19    20    1
     5    20    21    1
     6    21    22    1
     7    22    23    1
     8    23    24    1
     9    17    10    1
    10    10    11    1
    11    11    12    1
    12    12    13    1
    13    13     1    1
    14     1     2   ar
    15     2     3   ar
    16     3     4   ar
    17     4     5   ar
    18     5     6   ar
    19     6     7   ar
    20     7     8   ar
    21     8     9   ar
    22     9    25    1
    23    25    26    1
    24    26    27   ar
    25    27    28   ar
    26    28    29   ar
    27    29    30    1
    28    29    31   ar
    29    31    32   ar
    30    13    14    1
    31    14    15    1
    32    24    19    1
    33    15    10    1
    34     9     1   ar
    35    32    26   ar
    36     8     3   ar
@<TRIPOS>MOLECULE
*****
 32 36 0 0 0
SMALL
GASTEIGER

@<TRIPOS>ATOM
      1 C         139.5507  142.7181  159.9894 C.ar    1  UNL1        0.2014
      2 N         138.8733  142.5877  158.6574 N.ar    1  UNL1       -0.2136
      3 C         139.3434  143.7145  157.7860 C.ar    1  UNL1        0.0999
      4 C         139.0151  144.0944  156.3725 C.ar    1  UNL1        0.0207
      5 C         139.6547  145.3012  155.7525 C.ar    1  UNL1        0.0016
      6 C         140.6226  146.1281  156.5459 C.ar    1  UNL1        0.0016
      7 C         140.9509  145.7481  157.9593 C.ar    1  UNL1        0.0188
      8 C         140.3113  144.5413  158.5794 C.ar    1  UNL1        0.0801
      9 N         140.4394  143.9255  159.9411 N.ar    1  UNL1       -0.2954
     10 C         139.0115  139.9697  163.5115 C.3     1  UNL1        0.0610
     11 C         140.2121  139.8249  162.6241 C.3     1  UNL1        0.0375
     12 C         140.3918  140.7410  161.4501 C.3     1  UNL1        0.0949
     13 N         139.3710  141.8020  161.1634 N.pl3   1  UNL1       -0.2794
     14 C         138.1703  141.9468  162.0508 C.3     1  UNL1        0.0949
     15 C         137.9906  141.0306  163.2249 C.3     1  UNL1        0.0375
     16 C         138.9190  137.5680  164.4979 C.3     1  UNL1        0.0896
     17 N         138.8317  139.0536  164.6856 N.3     1  UNL1       -0.2727
     18 C         138.5647  139.6231  166.0473 C.3     1  UNL1        0.0722
     19 C         139.6937  139.8085  167.0173 C.3     1  UNL1        0.0210
     20 C         139.4029  140.0758  168.4644 C.3     1  UNL1        0.0335
     21 C         140.5319  140.2613  169.4344 C.3     1  UNL1        0.1422
     22 O         141.9517  140.1795  168.9574 O.3     1  UNL1       -0.3538
     23 C         142.2425  139.9121  167.5103 C.3     1  UNL1        0.1422
     24 C         141.1135  139.7267  166.5402 C.3     1  UNL1        0.0335
     25 C         141.3044  144.4288  161.0585 C.3     1  UNL1        0.1354
     26 C         140.8888  144.2146  162.4836 C.ar    1  UNL1        0.0006
     27 C         139.7023  144.9469  163.0371 C.ar    1  UNL1       -0.0001
     28 C         139.2866  144.7327  164.4623 C.ar    1  UNL1        0.0294
     29 C         140.0574  143.7861  165.3342 C.ar    1  UNL1        0.1401
     30 F         139.6417  143.5720  166.7594 F       1  UNL1       -0.2042
     31 C         141.2438  143.0539  164.7808 C.ar    1  UNL1        0.0294
     32 C         141.6595  143.2681  163.3555 C.ar    1  UNL1       -0.0001
@<TRIPOS>BOND
     1    16    17    1
     2    17    18    1
     3    18    19    1
     4    19    20    1
     5    20    21    1
     6    21    22    1
     7    22    23    1
     8    23    24    1
     9    17    10    1
    10    10    11    1
    11    11    12    1
    12    12    13    1
    13    13     1    1
    14     1     2   ar
    15     2     3   ar
    16     3     4   ar
    17     4     5   ar
    18     5     6   ar
    19     6     7   ar
    20     7     8   ar
    21     8     9   ar
    22     9    25    1
    23    25    26    1
    24    26    27   ar
    25    27    28   ar
    26    28    29   ar
    27    29    30    1
    28    29    31   ar
    29    31    32   ar
    30    13    14    1
    31    14    15    1
    32    24    19    1
    33    15    10    1
    34     9     1   ar
    35    32    26   ar
    36     8     3   ar
@<TRIPOS>MOLECULE
*****
 32 36 0 0 0
SMALL
GASTEIGER

@<TRIPOS>ATOM
      1 C         141.8550  138.8377  160.5442 C.ar    1  UNL1        0.2014
      2 N         142.9199  138.7294  159.4935 N.ar    1  UNL1       -0.2136
      3 C         142.2600  138.3452  158.2024 C.ar    1  UNL1        0.0999
      4 C         142.8099  138.0963  156.8292 C.ar    1  UNL1        0.0207
      5 C         141.8870  137.7183  155.7089 C.ar    1  UNL1        0.0016
      6 C         140.4141  137.5892  155.9617 C.ar    1  UNL1        0.0016
      7 C         139.8641  137.8381  157.3348 C.ar    1  UNL1        0.0188
      8 C         140.7871  138.2161  158.4551 C.ar    1  UNL1        0.0801
      9 N         140.5368  138.5205  159.9025 N.ar    1  UNL1       -0.2954
     10 C         142.5010  139.9235  164.8632 C.3     1  UNL1        0.0610
     11 C         142.3569  141.0031  163.8319 C.3     1  UNL1        0.0375
     12 C         142.1416  140.6412  162.3922 C.3     1  UNL1        0.0949
     13 N         142.0703  139.1996  161.9839 N.pl3   1  UNL1       -0.2794
     14 C         142.2144  138.1200  163.0152 C.3     1  UNL1        0.0949
     15 C         142.4298  138.4819  164.4548 C.3     1  UNL1        0.0375
     16 C         142.6762  139.2202  167.3581 C.3     1  UNL1        0.0896
     17 N         142.7164  140.2854  166.3028 N.3     1  UNL1       -0.2727
     18 C         142.9720  141.7126  166.6872 C.3     1  UNL1        0.0722
     19 C         142.4322  142.2494  167.9797 C.3     1  UNL1        0.0210
     20 C         140.9888  142.6442  168.0834 C.3     1  UNL1        0.0335
     21 C         140.4491  143.1810  169.3759 C.3     1  UNL1        0.1422
     22 O         141.3527  143.3231  170.5646 O.3     1  UNL1       -0.3538
     23 C         142.7961  142.9283  170.4610 C.3     1  UNL1        0.1422
     24 C         143.3359  142.3915  169.1685 C.3     1  UNL1        0.0335
     25 C         139.2025  138.5095  160.5877 C.3     1  UNL1        0.1354
     26 C         138.7286  139.7260  161.3263 C.ar    1  UNL1        0.0006
     27 C         138.3759  139.6301  162.7811 C.ar    1  UNL1       -0.0001
     28 C         137.9020  140.8466  163.5198 C.ar    1  UNL1        0.0294
     29 C         137.7809  142.1590  162.8036 C.ar    1  UNL1        0.1401
     30 F         137.3070  143.3755  163.5422 F       1  UNL1       -0.2042
     31 C         138.1336  142.2549  161.3488 C.ar    1  UNL1        0.0294
     32 C         138.6074  141.0384  160.6102 C.ar    1  UNL1       -0.0001
@<TRIPOS>BOND
     1    16    17    1
     2    17    18    1
     3    18    19    1
     4    19    20    1
     5    20    21    1
     6    21    22    1
     7    22    23    1
     8    23    24    1
     9    17    10    1
    10    10    11    1
    11    11    12    1
    12    12    13    1
    13    13     1    1
    14     1     2   ar
    15     2     3   ar
    16     3     4   ar
    17     4     5   ar
    18     5     6   ar
    19     6     7   ar
    20     7     8   ar
    21     8     9   ar
    22     9    25    1
    23    25    26    1
    24    26    27   ar
    25    27    28   ar
    26    28    29   ar
    27    29    30    1
    28    29    31   ar
    29    31    32   ar
    30    13    14    1
    31    14    15    1
    32    24    19    1
    33    15    10    1
    34     9     1   ar
    35    32    26   ar
    36     8     3   ar
