@<TRIPOS>MOLECULE
*****
 30 32 0 0 0
SMALL
GASTEIGER

@<TRIPOS>ATOM
      1 C         140.9722  141.7871  167.6638 C.ar    1  UNL1        0.0516
      2 C         141.2957  141.8086  169.1283 C.ar    1  UNL1        0.0798
      3 C         140.5929  140.8716  170.0654 C.ar    1  UNL1        0.0649
      4 C         140.9164  140.8931  171.5300 C.3     1  UNL1        0.0523
      5 N         139.5668  139.9131  169.5380 N.ar    1  UNL1       -0.2494
      6 C         139.2433  139.8915  168.0734 C.ar    1  UNL1        0.0821
      7 C         138.2171  138.9330  167.5460 C.ar    1  UNL1        0.0191
      8 C         137.8937  138.9115  166.0815 C.ar    1  UNL1        0.0016
      9 C         138.5964  139.8485  165.1444 C.ar    1  UNL1        0.0016
     10 C         139.6226  140.8071  165.6718 C.ar    1  UNL1        0.0028
     11 C         139.9460  140.8285  167.1363 C.ar    1  UNL1        0.0309
     12 C         138.2729  139.8270  163.6798 C.ar    1  UNL1        0.0192
     13 C         138.4982  138.5781  162.8802 C.ar    1  UNL1        0.0031
     14 C         138.1747  138.5565  161.4156 C.ar    1  UNL1        0.0207
     15 C         137.6259  139.7840  160.7507 C.ar    1  UNL1        0.0989
     16 N         137.4006  141.0330  161.5503 N.ar    1  UNL1       -0.2423
     17 C         137.7241  141.0545  163.0148 C.ar    1  UNL1        0.0988
     18 C         142.3219  142.7671  169.6558 C.2     1  UNL1        0.2451
     19 N         143.7818  142.4913  169.4495 N.am    1  UNL1       -0.3252
     20 O         141.8881  144.0014  170.3895 O.2     1  UNL1       -0.2703
     21 H         144.0665  141.6812  168.9679 H       1  UNL1        0.1453
     22 H         144.4553  143.1204  169.7957 H       1  UNL1        0.1453
     23 N         141.6749  142.7241  166.7267 N.pl3   1  UNL1       -0.3325
     24 H         141.2723  143.5955  166.5081 H       1  UNL1        0.1468
     25 C         142.9912  142.3334  166.1226 C.3     1  UNL1        0.0870
     26 C         143.0320  141.3767  164.9680 C.3     1  UNL1        0.0195
     27 C         143.0885  139.1100  166.2364 C.3     1  UNL1        0.0001
     28 C         143.6097  140.0046  165.1510 C.3     1  UNL1        0.0017
     29 C         142.4952  141.7922  163.6303 C.3     1  UNL1        0.0017
     30 C         141.8264  140.7833  162.7444 C.3     1  UNL1        0.0001
@<TRIPOS>BOND
     1    27    28    1
     2    28    26    1
     3    26    29    1
     4    29    30    1
     5    26    25    1
     6    25    23    1
     7    23     1    1
     8     1     2   ar
     9     2    18    1
    10    18    19   am
    11    18    20    2
    12     2     3   ar
    13     3     4    1
    14     3     5   ar
    15     5     6   ar
    16     6     7   ar
    17     7     8   ar
    18     8     9   ar
    19     9    12    1
    20    12    13   ar
    21    13    14   ar
    22    14    15   ar
    23    15    16   ar
    24    16    17   ar
    25     9    10   ar
    26    10    11   ar
    27    11     1   ar
    28    11     6   ar
    29    17    12   ar
    30    23    24    1
    31    19    21    1
    32    19    22    1
@<TRIPOS>MOLECULE
*****
 30 32 0 0 0
SMALL
GASTEIGER

@<TRIPOS>ATOM
      1 C         138.6678  140.7481  163.3573 C.ar    1  UNL1        0.0516
      2 C         138.8554  140.0573  162.0392 C.ar    1  UNL1        0.0798
      3 C         139.9823  139.0844  161.8560 C.ar    1  UNL1        0.0649
      4 C         140.1699  138.3935  160.5378 C.3     1  UNL1        0.0523
      5 N         140.9216  138.8022  162.9909 N.ar    1  UNL1       -0.2494
      6 C         140.7340  139.4931  164.3092 C.ar    1  UNL1        0.0821
      7 C         141.6733  139.2110  165.4441 C.ar    1  UNL1        0.0191
      8 C         141.4857  139.9018  166.7622 C.ar    1  UNL1        0.0016
      9 C         140.3588  140.8747  166.9454 C.ar    1  UNL1        0.0016
     10 C         139.4195  141.1568  165.8105 C.ar    1  UNL1        0.0028
     11 C         139.6071  140.4660  164.4924 C.ar    1  UNL1        0.0309
     12 C         140.1712  141.5655  168.2637 C.ar    1  UNL1        0.0192
     13 C         140.5977  142.9940  168.4292 C.ar    1  UNL1        0.0031
     14 C         140.4101  143.6849  169.7474 C.ar    1  UNL1        0.0207
     15 C         139.7961  142.9471  170.9001 C.ar    1  UNL1        0.0989
     16 N         139.3697  141.5185  170.7345 N.ar    1  UNL1       -0.2423
     17 C         139.5572  140.8277  169.4164 C.ar    1  UNL1        0.0988
     18 C         137.9161  140.3394  160.9042 C.2     1  UNL1        0.2451
     19 N         136.6775  139.5109  160.7321 N.am    1  UNL1       -0.3252
     20 O         138.2154  141.4499  159.9413 O.2     1  UNL1       -0.2703
     21 H         136.4811  138.7820  161.3641 H       1  UNL1        0.1453
     22 H         136.0611  139.6960  159.9872 H       1  UNL1        0.1453
     23 N         137.5409  141.7210  163.5406 N.pl3   1  UNL1       -0.3325
     24 H         136.6979  141.4256  163.9545 H       1  UNL1        0.1468
     25 C         137.6985  143.1441  163.0931 C.3     1  UNL1        0.0870
     26 C         139.0481  143.7976  163.1323 C.3     1  UNL1        0.0195
     27 C         138.5110  144.8136  165.4624 C.3     1  UNL1        0.0001
     28 C         139.4933  144.5254  164.3660 C.3     1  UNL1        0.0017
     29 C         139.9524  143.7232  161.9379 C.3     1  UNL1        0.0017
     30 C         141.2396  142.9572  162.0182 C.3     1  UNL1        0.0001
@<TRIPOS>BOND
     1    27    28    1
     2    28    26    1
     3    26    29    1
     4    29    30    1
     5    26    25    1
     6    25    23    1
     7    23     1    1
     8     1     2   ar
     9     2    18    1
    10    18    19   am
    11    18    20    2
    12     2     3   ar
    13     3     4    1
    14     3     5   ar
    15     5     6   ar
    16     6     7   ar
    17     7     8   ar
    18     8     9   ar
    19     9    12    1
    20    12    13   ar
    21    13    14   ar
    22    14    15   ar
    23    15    16   ar
    24    16    17   ar
    25     9    10   ar
    26    10    11   ar
    27    11     1   ar
    28    11     6   ar
    29    17    12   ar
    30    23    24    1
    31    19    21    1
    32    19    22    1
@<TRIPOS>MOLECULE
*****
 30 32 0 0 0
SMALL
GASTEIGER

@<TRIPOS>ATOM
      1 C         140.3325  144.0285  163.3809 C.ar    1  UNL1        0.0516
      2 C         139.9923  144.0484  161.9202 C.ar    1  UNL1        0.0798
      3 C         139.3057  142.8709  161.2939 C.ar    1  UNL1        0.0649
      4 C         138.9655  142.8908  159.8331 C.3     1  UNL1        0.0523
      5 N         138.9592  141.6737  162.1284 N.ar    1  UNL1       -0.2494
      6 C         139.2994  141.6538  163.5893 C.ar    1  UNL1        0.0821
      7 C         138.9530  140.4565  164.4238 C.ar    1  UNL1        0.0191
      8 C         139.2932  140.4367  165.8845 C.ar    1  UNL1        0.0016
      9 C         139.9798  141.6141  166.5108 C.ar    1  UNL1        0.0016
     10 C         140.3263  142.8114  165.6762 C.ar    1  UNL1        0.0028
     11 C         139.9861  142.8312  164.2155 C.ar    1  UNL1        0.0309
     12 C         140.3200  141.5942  167.9716 C.ar    1  UNL1        0.0192
     13 C         140.7502  142.8563  168.6587 C.ar    1  UNL1        0.0031
     14 C         141.0904  142.8364  170.1195 C.ar    1  UNL1        0.0207
     15 C         141.0004  141.5544  170.8932 C.ar    1  UNL1        0.0989
     16 N         140.5702  140.2923  170.2060 N.ar    1  UNL1       -0.2423
     17 C         140.2300  140.3123  168.7452 C.ar    1  UNL1        0.0988
     18 C         140.3387  145.2457  161.0856 C.2     1  UNL1        0.2451
     19 N         141.6282  145.2785  160.3199 N.am    1  UNL1       -0.3252
     20 O         139.3958  146.4102  161.0167 O.2     1  UNL1       -0.2703
     21 H         142.2471  144.5142  160.3651 H       1  UNL1        0.1453
     22 H         141.8556  146.0643  159.7721 H       1  UNL1        0.1453
     23 N         141.0191  145.2060  164.0071 N.pl3   1  UNL1       -0.3325
     24 H         140.5060  145.8376  164.5613 H       1  UNL1        0.1468
     25 C         142.4876  145.4211  163.7891 C.3     1  UNL1        0.0870
     26 C         143.4324  144.2574  163.8445 C.3     1  UNL1        0.0195
     27 C         143.8155  142.1847  165.3635 C.3     1  UNL1        0.0001
     28 C         143.8244  143.6720  165.1687 C.3     1  UNL1        0.0017
     29 C         143.9852  143.6791  162.5756 C.3     1  UNL1        0.0017
     30 C         143.2962  142.5211  161.9166 C.3     1  UNL1        0.0001
@<TRIPOS>BOND
     1    27    28    1
     2    28    26    1
     3    26    29    1
     4    29    30    1
     5    26    25    1
     6    25    23    1
     7    23     1    1
     8     1     2   ar
     9     2    18    1
    10    18    19   am
    11    18    20    2
    12     2     3   ar
    13     3     4    1
    14     3     5   ar
    15     5     6   ar
    16     6     7   ar
    17     7     8   ar
    18     8     9   ar
    19     9    12    1
    20    12    13   ar
    21    13    14   ar
    22    14    15   ar
    23    15    16   ar
    24    16    17   ar
    25     9    10   ar
    26    10    11   ar
    27    11     1   ar
    28    11     6   ar
    29    17    12   ar
    30    23    24    1
    31    19    21    1
    32    19    22    1
@<TRIPOS>MOLECULE
*****
 30 32 0 0 0
SMALL
GASTEIGER

@<TRIPOS>ATOM
      1 C         139.7935  142.9223  164.0645 C.ar    1  UNL1        0.0516
      2 C         139.6620  143.6492  162.7590 C.ar    1  UNL1        0.0798
      3 C         140.8654  144.2883  162.1320 C.ar    1  UNL1        0.0649
      4 C         140.7339  145.0153  160.8264 C.3     1  UNL1        0.0523
      5 N         142.2004  144.2006  162.8103 N.ar    1  UNL1       -0.2494
      6 C         142.3319  143.4737  164.1159 C.ar    1  UNL1        0.0821
      7 C         143.6668  143.3859  164.7943 C.ar    1  UNL1        0.0191
      8 C         143.7983  142.6590  166.0997 C.ar    1  UNL1        0.0016
      9 C         142.5948  142.0199  166.7268 C.ar    1  UNL1        0.0016
     10 C         141.2599  142.1076  166.0484 C.ar    1  UNL1        0.0028
     11 C         141.1285  142.8345  164.7430 C.ar    1  UNL1        0.0309
     12 C         142.7264  141.2929  168.0323 C.ar    1  UNL1        0.0192
     13 C         142.4015  139.8308  168.1127 C.ar    1  UNL1        0.0031
     14 C         142.5330  139.1038  169.4182 C.ar    1  UNL1        0.0207
     15 C         142.9895  139.8391  170.6434 C.ar    1  UNL1        0.0989
     16 N         143.3144  141.3014  170.5630 N.ar    1  UNL1       -0.2423
     17 C         143.1828  142.0282  169.2575 C.ar    1  UNL1        0.0988
     18 C         138.3270  143.7369  162.0806 C.2     1  UNL1        0.2451
     19 N         137.2966  144.7080  162.5756 N.am    1  UNL1       -0.3252
     20 O         138.0226  142.8536  160.9071 O.2     1  UNL1       -0.2703
     21 H         137.4964  145.2878  163.3458 H       1  UNL1        0.1453
     22 H         136.4204  144.7657  162.1303 H       1  UNL1        0.1453
     23 N         138.5901  142.2831  164.6916 N.pl3   1  UNL1       -0.3325
     24 H         138.0812  142.7646  165.3833 H       1  UNL1        0.1468
     25 C         138.1619  140.9103  164.2646 C.3     1  UNL1        0.0870
     26 C         138.8683  139.7024  164.8050 C.3     1  UNL1        0.0195
     27 C         138.8333  139.5760  167.3997 C.3     1  UNL1        0.0001
     28 C         138.3845  139.0529  166.0675 C.3     1  UNL1        0.0017
     29 C         140.0586  139.1441  164.0828 C.3     1  UNL1        0.0017
     30 C         141.1708  138.5000  164.8561 C.3     1  UNL1        0.0001
@<TRIPOS>BOND
     1    27    28    1
     2    28    26    1
     3    26    29    1
     4    29    30    1
     5    26    25    1
     6    25    23    1
     7    23     1    1
     8     1     2   ar
     9     2    18    1
    10    18    19   am
    11    18    20    2
    12     2     3   ar
    13     3     4    1
    14     3     5   ar
    15     5     6   ar
    16     6     7   ar
    17     7     8   ar
    18     8     9   ar
    19     9    12    1
    20    12    13   ar
    21    13    14   ar
    22    14    15   ar
    23    15    16   ar
    24    16    17   ar
    25     9    10   ar
    26    10    11   ar
    27    11     1   ar
    28    11     6   ar
    29    17    12   ar
    30    23    24    1
    31    19    21    1
    32    19    22    1
@<TRIPOS>MOLECULE
*****
 30 32 0 0 0
SMALL
GASTEIGER

@<TRIPOS>ATOM
      1 C         141.7907  140.5517  167.6444 C.ar    1  UNL1        0.0516
      2 C         141.8079  140.8311  169.1180 C.ar    1  UNL1        0.0798
      3 C         140.5956  140.5378  169.9512 C.ar    1  UNL1        0.0649
      4 C         140.6129  140.8172  171.4249 C.3     1  UNL1        0.0523
      5 N         139.3660  139.9653  169.3108 N.ar    1  UNL1       -0.2494
      6 C         139.3487  139.6859  167.8371 C.ar    1  UNL1        0.0821
      7 C         138.1191  139.1133  167.1967 C.ar    1  UNL1        0.0191
      8 C         138.1018  138.8340  165.7231 C.ar    1  UNL1        0.0016
      9 C         139.3141  139.1272  164.8899 C.ar    1  UNL1        0.0016
     10 C         140.5437  139.6998  165.5303 C.ar    1  UNL1        0.0028
     11 C         140.5610  139.9791  167.0039 C.ar    1  UNL1        0.0309
     12 C         139.2968  138.8478  163.4162 C.ar    1  UNL1        0.0192
     13 C         138.1712  139.3619  162.5685 C.ar    1  UNL1        0.0031
     14 C         138.1539  139.0825  161.0948 C.ar    1  UNL1        0.0207
     15 C         139.2623  138.2891  160.4688 C.ar    1  UNL1        0.0989
     16 N         140.3880  137.7749  161.3166 N.ar    1  UNL1       -0.2423
     17 C         140.4052  138.0543  162.7902 C.ar    1  UNL1        0.0988
     18 C         143.0376  141.4037  169.7585 C.2     1  UNL1        0.2451
     19 N         143.8738  140.5541  170.6690 N.am    1  UNL1       -0.3252
     20 O         143.4309  142.8257  169.4885 O.2     1  UNL1       -0.2703
     21 H         143.6156  139.6208  170.8463 H       1  UNL1        0.1453
     22 H         144.6808  140.9299  171.0894 H       1  UNL1        0.1453
     23 N         143.0030  140.8449  166.8112 N.pl3   1  UNL1       -0.3325
     24 H         143.6704  140.1398  166.6480 H       1  UNL1        0.1468
     25 C         143.1984  142.2125  166.2266 C.3     1  UNL1        0.0870
     26 C         142.8798  142.4634  164.7825 C.3     1  UNL1        0.0195
     27 C         140.5358  143.3708  165.4399 C.3     1  UNL1        0.0001
     28 C         141.5969  143.1426  164.4046 C.3     1  UNL1        0.0017
     29 C         143.8441  142.0351  163.7163 C.3     1  UNL1        0.0017
     30 C         145.3121  141.9658  164.0167 C.3     1  UNL1        0.0001
@<TRIPOS>BOND
     1    27    28    1
     2    28    26    1
     3    26    29    1
     4    29    30    1
     5    26    25    1
     6    25    23    1
     7    23     1    1
     8     1     2   ar
     9     2    18    1
    10    18    19   am
    11    18    20    2
    12     2     3   ar
    13     3     4    1
    14     3     5   ar
    15     5     6   ar
    16     6     7   ar
    17     7     8   ar
    18     8     9   ar
    19     9    12    1
    20    12    13   ar
    21    13    14   ar
    22    14    15   ar
    23    15    16   ar
    24    16    17   ar
    25     9    10   ar
    26    10    11   ar
    27    11     1   ar
    28    11     6   ar
    29    17    12   ar
    30    23    24    1
    31    19    21    1
    32    19    22    1
@<TRIPOS>MOLECULE
*****
 30 32 0 0 0
SMALL
GASTEIGER

@<TRIPOS>ATOM
      1 C         140.6550  140.7263  163.2772 C.ar    1  UNL1        0.0516
      2 C         140.3492  140.0518  161.9728 C.ar    1  UNL1        0.0798
      3 C         139.3888  138.9004  161.9308 C.ar    1  UNL1        0.0649
      4 C         139.0830  138.2259  160.6263 C.3     1  UNL1        0.0523
      5 N         138.7341  138.4234  163.1933 N.ar    1  UNL1       -0.2494
      6 C         139.0399  139.0979  164.4978 C.ar    1  UNL1        0.0821
      7 C         138.3852  138.6209  165.7602 C.ar    1  UNL1        0.0191
      8 C         138.6909  139.2954  167.0646 C.ar    1  UNL1        0.0016
      9 C         139.6514  140.4468  167.1066 C.ar    1  UNL1        0.0016
     10 C         140.3060  140.9238  165.8442 C.ar    1  UNL1        0.0028
     11 C         140.0003  140.2493  164.5397 C.ar    1  UNL1        0.0309
     12 C         139.9571  141.1213  168.4111 C.ar    1  UNL1        0.0192
     13 C         140.4401  142.5413  168.4262 C.ar    1  UNL1        0.0031
     14 C         140.7459  143.2158  169.7307 C.ar    1  UNL1        0.0207
     15 C         140.5686  142.4702  171.0201 C.ar    1  UNL1        0.0989
     16 N         140.0855  141.0501  171.0050 N.ar    1  UNL1       -0.2423
     17 C         139.7798  140.3757  169.7006 C.ar    1  UNL1        0.0988
     18 C         141.0039  140.5288  160.7102 C.2     1  UNL1        0.2451
     19 N         142.3296  139.9643  160.2933 N.am    1  UNL1       -0.3252
     20 O         140.3329  141.5702  159.8646 O.2     1  UNL1       -0.2703
     21 H         142.7700  139.2807  160.8484 H       1  UNL1        0.1453
     22 H         142.7593  140.2773  159.4647 H       1  UNL1        0.1453
     23 N         141.6154  141.8777  163.3191 N.pl3   1  UNL1       -0.3325
     24 H         142.5439  141.7338  163.6131 H       1  UNL1        0.1468
     25 C         141.1611  143.2485  162.9132 C.3     1  UNL1        0.0870
     26 C         139.8913  143.8150  163.4758 C.3     1  UNL1        0.0195
     27 C         137.7369  142.6768  162.5739 C.3     1  UNL1        0.0001
     28 C         138.6527  143.8635  162.6310 C.3     1  UNL1        0.0017
     29 C         139.8600  144.3330  164.8832 C.3     1  UNL1        0.0017
     30 C         138.5790  144.8578  165.4609 C.3     1  UNL1        0.0001
@<TRIPOS>BOND
     1    27    28    1
     2    28    26    1
     3    26    29    1
     4    29    30    1
     5    26    25    1
     6    25    23    1
     7    23     1    1
     8     1     2   ar
     9     2    18    1
    10    18    19   am
    11    18    20    2
    12     2     3   ar
    13     3     4    1
    14     3     5   ar
    15     5     6   ar
    16     6     7   ar
    17     7     8   ar
    18     8     9   ar
    19     9    12    1
    20    12    13   ar
    21    13    14   ar
    22    14    15   ar
    23    15    16   ar
    24    16    17   ar
    25     9    10   ar
    26    10    11   ar
    27    11     1   ar
    28    11     6   ar
    29    17    12   ar
    30    23    24    1
    31    19    21    1
    32    19    22    1
@<TRIPOS>MOLECULE
*****
 30 32 0 0 0
SMALL
GASTEIGER

@<TRIPOS>ATOM
      1 C         141.0911  141.6878  167.5334 C.ar    1  UNL1        0.0516
      2 C         141.3524  141.7722  169.0080 C.ar    1  UNL1        0.0798
      3 C         140.5698  140.9156  169.9586 C.ar    1  UNL1        0.0649
      4 C         140.8312  140.9999  171.4333 C.3     1  UNL1        0.0523
      5 N         139.5258  139.9746  169.4346 N.ar    1  UNL1       -0.2494
      6 C         139.2644  139.8902  167.9600 C.ar    1  UNL1        0.0821
      7 C         138.2204  138.9492  167.4360 C.ar    1  UNL1        0.0191
      8 C         137.9591  138.8649  165.9614 C.ar    1  UNL1        0.0016
      9 C         138.7417  139.7215  165.0107 C.ar    1  UNL1        0.0016
     10 C         139.7857  140.6625  165.5347 C.ar    1  UNL1        0.0028
     11 C         140.0470  140.7468  167.0093 C.ar    1  UNL1        0.0309
     12 C         138.4803  139.6371  163.5360 C.ar    1  UNL1        0.0192
     13 C         138.0090  140.8484  162.7874 C.ar    1  UNL1        0.0031
     14 C         137.7476  140.7640  161.3127 C.ar    1  UNL1        0.0207
     15 C         137.9575  139.4683  160.5867 C.ar    1  UNL1        0.0989
     16 N         138.4289  138.2569  161.3355 N.ar    1  UNL1       -0.2423
     17 C         138.6903  138.3414  162.8101 C.ar    1  UNL1        0.0988
     18 C         142.3965  142.7132  169.5321 C.2     1  UNL1        0.2451
     19 N         142.0040  143.8335  170.4491 N.am    1  UNL1       -0.3252
     20 O         143.8329  142.5339  169.1391 O.2     1  UNL1       -0.2703
     21 H         141.0612  143.9512  170.7070 H       1  UNL1        0.1453
     22 H         142.6892  144.4511  170.7931 H       1  UNL1        0.1453
     23 N         141.8737  142.5445  166.5828 N.pl3   1  UNL1       -0.3325
     24 H         141.5682  143.4575  166.3773 H       1  UNL1        0.1468
     25 C         143.1219  142.0099  165.9452 C.3     1  UNL1        0.0870
     26 C         143.7289  142.7214  164.7725 C.3     1  UNL1        0.0195
     27 C         145.3873  140.9671  163.8122 C.3     1  UNL1        0.0001
     28 C         145.1063  142.3559  164.3045 C.3     1  UNL1        0.0017
     29 C         142.9585  143.7985  164.0679 C.3     1  UNL1        0.0017
     30 C         143.5604  145.1617  163.8970 C.3     1  UNL1        0.0001
@<TRIPOS>BOND
     1    27    28    1
     2    28    26    1
     3    26    29    1
     4    29    30    1
     5    26    25    1
     6    25    23    1
     7    23     1    1
     8     1     2   ar
     9     2    18    1
    10    18    19   am
    11    18    20    2
    12     2     3   ar
    13     3     4    1
    14     3     5   ar
    15     5     6   ar
    16     6     7   ar
    17     7     8   ar
    18     8     9   ar
    19     9    12    1
    20    12    13   ar
    21    13    14   ar
    22    14    15   ar
    23    15    16   ar
    24    16    17   ar
    25     9    10   ar
    26    10    11   ar
    27    11     1   ar
    28    11     6   ar
    29    17    12   ar
    30    23    24    1
    31    19    21    1
    32    19    22    1
@<TRIPOS>MOLECULE
*****
 30 32 0 0 0
SMALL
GASTEIGER

@<TRIPOS>ATOM
      1 C         139.8520  139.6660  163.9732 C.ar    1  UNL1        0.0516
      2 C         139.1569  139.5184  162.6523 C.ar    1  UNL1        0.0798
      3 C         138.4804  140.7009  162.0245 C.ar    1  UNL1        0.0649
      4 C         137.7852  140.5532  160.7035 C.3     1  UNL1        0.0523
      5 N         138.4991  142.0309  162.7177 N.ar    1  UNL1       -0.2494
      6 C         139.1942  142.1786  164.0387 C.ar    1  UNL1        0.0821
      7 C         139.2129  143.5086  164.7319 C.ar    1  UNL1        0.0191
      8 C         139.9081  143.6562  166.0528 C.ar    1  UNL1        0.0016
      9 C         140.5846  142.4737  166.6806 C.ar    1  UNL1        0.0016
     10 C         140.5659  141.1437  165.9874 C.ar    1  UNL1        0.0028
     11 C         139.8707  140.9961  164.6665 C.ar    1  UNL1        0.0309
     12 C         141.2798  142.6214  168.0016 C.ar    1  UNL1        0.0192
     13 C         142.6992  142.1624  168.1575 C.ar    1  UNL1        0.0031
     14 C         143.3944  142.3101  169.4785 C.ar    1  UNL1        0.0207
     15 C         142.6700  142.9167  170.6436 C.ar    1  UNL1        0.0989
     16 N         141.2505  143.3757  170.4876 N.ar    1  UNL1       -0.2423
     17 C         140.5554  143.2280  169.1666 C.ar    1  UNL1        0.0988
     18 C         139.1382  138.1883  161.9590 C.2     1  UNL1        0.2451
     19 N         137.8565  137.4163  161.8520 N.am    1  UNL1       -0.3252
     20 O         140.4011  137.6302  161.3729 O.2     1  UNL1       -0.2703
     21 H         137.0277  137.7826  162.2366 H       1  UNL1        0.1453
     22 H         137.8443  136.5433  161.3970 H       1  UNL1        0.1453
     23 N         140.5285  138.4835  164.6010 N.pl3   1  UNL1       -0.3325
     24 H         140.0286  137.8995  165.2160 H       1  UNL1        0.1468
     25 C         141.9669  138.1908  164.2917 C.3     1  UNL1        0.0870
     26 C         143.0543  138.9456  164.9971 C.3     1  UNL1        0.0195
     27 C         144.1649  137.5990  166.9214 C.3     1  UNL1        0.0001
     28 C         143.2899  138.7275  166.4623 C.3     1  UNL1        0.0017
     29 C         143.9063  139.9187  164.2372 C.3     1  UNL1        0.0017
     30 C         143.7557  141.3921  164.4747 C.3     1  UNL1        0.0001
@<TRIPOS>BOND
     1    27    28    1
     2    28    26    1
     3    26    29    1
     4    29    30    1
     5    26    25    1
     6    25    23    1
     7    23     1    1
     8     1     2   ar
     9     2    18    1
    10    18    19   am
    11    18    20    2
    12     2     3   ar
    13     3     4    1
    14     3     5   ar
    15     5     6   ar
    16     6     7   ar
    17     7     8   ar
    18     8     9   ar
    19     9    12    1
    20    12    13   ar
    21    13    14   ar
    22    14    15   ar
    23    15    16   ar
    24    16    17   ar
    25     9    10   ar
    26    10    11   ar
    27    11     1   ar
    28    11     6   ar
    29    17    12   ar
    30    23    24    1
    31    19    21    1
    32    19    22    1
@<TRIPOS>MOLECULE
*****
 30 32 0 0 0
SMALL
GASTEIGER

@<TRIPOS>ATOM
      1 C         140.3680  140.9372  163.4679 C.ar    1  UNL1        0.0516
      2 C         139.5978  140.1975  162.4145 C.ar    1  UNL1        0.0798
      3 C         138.5771  139.1729  162.8124 C.ar    1  UNL1        0.0649
      4 C         137.8069  138.4331  161.7590 C.3     1  UNL1        0.0523
      5 N         138.3266  138.8880  164.2636 N.ar    1  UNL1       -0.2494
      6 C         139.0968  139.6278  165.3170 C.ar    1  UNL1        0.0821
      7 C         138.8462  139.3429  166.7682 C.ar    1  UNL1        0.0191
      8 C         139.6164  140.0826  167.8216 C.ar    1  UNL1        0.0016
      9 C         140.6372  141.1072  167.4237 C.ar    1  UNL1        0.0016
     10 C         140.8877  141.3921  165.9725 C.ar    1  UNL1        0.0028
     11 C         140.1175  140.6524  164.9192 C.ar    1  UNL1        0.0309
     12 C         141.4074  141.8470  168.4771 C.ar    1  UNL1        0.0192
     13 C         142.8416  141.4969  168.7423 C.ar    1  UNL1        0.0031
     14 C         143.6118  142.2367  169.7957 C.ar    1  UNL1        0.0207
     15 C         142.9477  143.3265  170.5839 C.ar    1  UNL1        0.0989
     16 N         141.5134  143.6766  170.3187 N.ar    1  UNL1       -0.2423
     17 C         140.7433  142.9368  169.2653 C.ar    1  UNL1        0.0988
     18 C         139.8484  140.4823  160.9632 C.2     1  UNL1        0.2451
     19 N         140.9394  139.7560  160.2339 N.am    1  UNL1       -0.3252
     20 O         139.0078  141.4934  160.2414 O.2     1  UNL1       -0.2703
     21 H         141.4911  139.0924  160.7076 H       1  UNL1        0.1453
     22 H         141.1039  139.9429  159.2814 H       1  UNL1        0.1453
     23 N         141.3888  141.9618  163.0700 N.pl3   1  UNL1       -0.3325
     24 H         142.3443  141.7250  163.0557 H       1  UNL1        0.1468
     25 C         140.9536  143.3472  162.6938 C.3     1  UNL1        0.0870
     26 C         140.9779  144.4445  163.7162 C.3     1  UNL1        0.0195
     27 C         143.4600  144.9428  163.1321 C.3     1  UNL1        0.0001
     28 C         142.2500  145.1933  163.9826 C.3     1  UNL1        0.0017
     29 C         139.7301  144.7930  164.4722 C.3     1  UNL1        0.0017
     30 C         138.4843  143.9802  164.2787 C.3     1  UNL1        0.0001
@<TRIPOS>BOND
     1    27    28    1
     2    28    26    1
     3    26    29    1
     4    29    30    1
     5    26    25    1
     6    25    23    1
     7    23     1    1
     8     1     2   ar
     9     2    18    1
    10    18    19   am
    11    18    20    2
    12     2     3   ar
    13     3     4    1
    14     3     5   ar
    15     5     6   ar
    16     6     7   ar
    17     7     8   ar
    18     8     9   ar
    19     9    12    1
    20    12    13   ar
    21    13    14   ar
    22    14    15   ar
    23    15    16   ar
    24    16    17   ar
    25     9    10   ar
    26    10    11   ar
    27    11     1   ar
    28    11     6   ar
    29    17    12   ar
    30    23    24    1
    31    19    21    1
    32    19    22    1
