@<TRIPOS>MOLECULE
*****
 36 39 0 0 0
SMALL
GASTEIGER

@<TRIPOS>ATOM
      1 N         138.8331  138.4294  165.2773 N.ar    1  UNL1       -0.2944
      2 C         137.9516  138.3284  166.4867 C.ar    1  UNL1        0.1798
      3 N         138.5462  139.1832  167.5665 N.ar    1  UNL1       -0.2194
      4 C         139.7953  139.8124  167.0243 C.ar    1  UNL1        0.1485
      5 C         140.7942  140.7494  167.6361 C.ar    1  UNL1        0.1543
      6 N         141.9703  141.2205  166.8332 N.ar    1  UNL1       -0.2102
      7 C         142.1476  140.7546  165.4185 C.ar    1  UNL1        0.1653
      8 N         141.1487  139.8176  164.8066 N.ar    1  UNL1       -0.2078
      9 C         139.9726  139.3465  165.6096 C.ar    1  UNL1        0.1672
     10 N         140.6169  141.2153  169.0509 N.pl3   1  UNL1       -0.2868
     11 C         141.0018  140.3181  170.1898 C.3     1  UNL1        0.1243
     12 C         140.8245  140.7840  171.6045 C.3     1  UNL1        0.1636
     13 O         140.2624  142.1470  171.8804 O.3     1  UNL1       -0.3501
     14 C         139.8775  143.0442  170.7416 C.3     1  UNL1        0.1636
     15 C         140.0547  142.5783  169.3268 C.3     1  UNL1        0.1243
     16 C         143.3238  141.2257  164.6155 C.ar    1  UNL1        0.0357
     17 C         144.5760  140.4015  164.5651 C.ar    1  UNL1        0.0030
     18 C         145.7522  140.8726  163.7621 C.ar    1  UNL1       -0.0001
     19 C         145.6761  142.1680  163.0096 C.ar    1  UNL1       -0.0019
     20 C         144.4239  142.9922  163.0601 C.ar    1  UNL1        0.0071
     21 C         143.2477  142.5211  163.8630 C.ar    1  UNL1        0.0012
     22 C         144.3478  144.2876  162.3076 C.3     1  UNL1        0.1636
     23 O         143.5023  145.4106  162.8313 O.3     1  UNL1       -0.3772
     24 H         142.5679  145.1518  162.8039 H       1  UNL1        0.2109
     25 C         138.6137  137.7351  163.9659 C.3     1  UNL1        0.1090
     26 C         138.1114  138.5082  162.7827 C.3     1  UNL1        0.0246
     27 C         138.9626  139.5818  162.1722 C.3     1  UNL1        0.0020
     28 C         138.5264  141.0153  162.2421 C.3     1  UNL1        0.0006
     29 C         137.5392  141.4488  163.2850 C.3     1  UNL1        0.0096
     30 C         137.8825  142.5673  164.2237 C.3     1  UNL1        0.0871
     31 O         137.8302  144.6687  162.6969 O.2     1  UNL1       -0.2730
     32 C         138.5402  143.8100  163.7011 C.2     1  UNL1        0.2443
     33 N         139.9079  144.1940  164.1827 N.am    1  UNL1       -0.1970
     34 O         140.5656  145.4367  163.6600 O.3     1  UNL1       -0.2952
     35 H         140.3739  143.6304  164.8418 H       1  UNL1        0.1822
     36 H         139.9760  145.8716  163.0244 H       1  UNL1        0.2414
@<TRIPOS>BOND
     1    31    32    2
     2    32    30    1
     3    30    29    1
     4    29    28    1
     5    28    27    1
     6    27    26    1
     7    26    25    1
     8    25     1    1
     9     1     2   ar
    10     2     3   ar
    11     3     4   ar
    12     4     5   ar
    13     5    10    1
    14    10    11    1
    15    11    12    1
    16    12    13    1
    17    13    14    1
    18    14    15    1
    19     5     6   ar
    20     6     7   ar
    21     7    16    1
    22    16    17   ar
    23    17    18   ar
    24    18    19   ar
    25    19    20   ar
    26    20    22    1
    27    22    23    1
    28    20    21   ar
    29     7     8   ar
    30     8     9   ar
    31    32    33   am
    32    33    34    1
    33     9     1   ar
    34     9     4   ar
    35    15    10    1
    36    21    16   ar
    37    23    24    1
    38    33    35    1
    39    34    36    1
@<TRIPOS>MOLECULE
*****
 36 39 0 0 0
SMALL
GASTEIGER

@<TRIPOS>ATOM
      1 N         142.3817  138.9281  164.3368 N.ar    1  UNL1       -0.2944
      2 C         142.6375  138.4026  165.7183 C.ar    1  UNL1        0.1798
      3 N         142.4144  139.5238  166.6894 N.ar    1  UNL1       -0.2194
      4 C         142.0208  140.7423  165.9082 C.ar    1  UNL1        0.1485
      5 C         141.6782  142.1395  166.3329 C.ar    1  UNL1        0.1543
      6 N         141.3154  143.1685  165.3037 N.ar    1  UNL1       -0.2102
      7 C         141.2951  142.8004  163.8498 C.ar    1  UNL1        0.1653
      8 N         141.6378  141.4032  163.4250 N.ar    1  UNL1       -0.2078
      9 C         142.0006  140.3741  164.4542 C.ar    1  UNL1        0.1672
     10 N         141.6984  142.5077  167.7869 N.pl3   1  UNL1       -0.2868
     11 C         140.4547  143.0251  168.4470 C.3     1  UNL1        0.1243
     12 C         140.4749  143.3933  169.9008 C.3     1  UNL1        0.1636
     13 O         141.7388  143.2440  170.6949 O.3     1  UNL1       -0.3501
     14 C         142.9824  142.7266  170.0349 C.3     1  UNL1        0.1636
     15 C         142.9623  142.3584  168.5809 C.3     1  UNL1        0.1243
     16 C         140.9323  143.8296  162.8205 C.ar    1  UNL1        0.0357
     17 C         140.0297  144.9704  163.1863 C.ar    1  UNL1        0.0030
     18 C         139.6669  145.9995  162.1570 C.ar    1  UNL1       -0.0001
     19 C         140.2066  145.8877  160.7620 C.ar    1  UNL1       -0.0019
     20 C         141.1091  144.7468  160.3961 C.ar    1  UNL1        0.0071
     21 C         141.4720  143.7177  161.4254 C.ar    1  UNL1        0.0012
     22 C         141.6488  144.6350  159.0011 C.3     1  UNL1        0.1636
     23 O         142.2942  145.8219  158.3492 O.3     1  UNL1       -0.3772
     24 H         141.6305  146.5157  158.2115 H       1  UNL1        0.2109
     25 C         142.4883  138.1451  163.0618 C.3     1  UNL1        0.1090
     26 C         141.2632  137.5261  162.4572 C.3     1  UNL1        0.0246
     27 C         140.0809  138.3833  162.1145 C.3     1  UNL1        0.0020
     28 C         138.7889  138.2105  162.8568 C.3     1  UNL1        0.0006
     29 C         138.6336  138.7817  164.2350 C.3     1  UNL1        0.0096
     30 C         138.7112  137.8821  165.4328 C.3     1  UNL1        0.0871
     31 O         136.9997  137.9871  167.3847 O.2     1  UNL1       -0.2730
     32 C         138.3119  138.3964  166.7842 C.2     1  UNL1        0.2443
     33 N         139.2248  139.3199  167.5350 N.am    1  UNL1       -0.1970
     34 O         138.8255  139.8341  168.8863 O.3     1  UNL1       -0.2952
     35 H         140.0861  139.5885  167.1409 H       1  UNL1        0.1822
     36 H         137.9562  139.4759  169.1247 H       1  UNL1        0.2414
@<TRIPOS>BOND
     1    31    32    2
     2    32    30    1
     3    30    29    1
     4    29    28    1
     5    28    27    1
     6    27    26    1
     7    26    25    1
     8    25     1    1
     9     1     2   ar
    10     2     3   ar
    11     3     4   ar
    12     4     5   ar
    13     5    10    1
    14    10    11    1
    15    11    12    1
    16    12    13    1
    17    13    14    1
    18    14    15    1
    19     5     6   ar
    20     6     7   ar
    21     7    16    1
    22    16    17   ar
    23    17    18   ar
    24    18    19   ar
    25    19    20   ar
    26    20    22    1
    27    22    23    1
    28    20    21   ar
    29     7     8   ar
    30     8     9   ar
    31    32    33   am
    32    33    34    1
    33     9     1   ar
    34     9     4   ar
    35    15    10    1
    36    21    16   ar
    37    23    24    1
    38    33    35    1
    39    34    36    1
@<TRIPOS>MOLECULE
*****
 36 39 0 0 0
SMALL
GASTEIGER

@<TRIPOS>ATOM
      1 N         138.7150  138.7985  165.1008 N.ar    1  UNL1       -0.2944
      2 C         138.1807  138.2923  166.4078 C.ar    1  UNL1        0.1798
      3 N         138.7329  139.1584  167.5010 N.ar    1  UNL1       -0.2194
      4 C         139.6084  140.1999  166.8695 C.ar    1  UNL1        0.1485
      5 C         140.4143  141.3221  167.4537 C.ar    1  UNL1        0.1543
      6 N         141.2092  142.2218  166.5544 N.ar    1  UNL1       -0.2102
      7 C         141.1982  141.9994  165.0711 C.ar    1  UNL1        0.1653
      8 N         140.3922  140.8772  164.4869 N.ar    1  UNL1       -0.2078
      9 C         139.5974  139.9774  165.3862 C.ar    1  UNL1        0.1672
     10 N         140.4254  141.5446  168.9370 N.pl3   1  UNL1       -0.2868
     11 C         140.8763  140.4484  169.8565 C.3     1  UNL1        0.1243
     12 C         140.8873  140.6709  171.3398 C.3     1  UNL1        0.1636
     13 O         140.4475  141.9894  171.9038 O.3     1  UNL1       -0.3501
     14 C         139.9966  143.0855  170.9844 C.3     1  UNL1        0.1636
     15 C         139.9855  142.8631  169.5010 C.3     1  UNL1        0.1243
     16 C         141.9931  142.8992  164.1718 C.ar    1  UNL1        0.0357
     17 C         143.2409  143.5570  164.6819 C.ar    1  UNL1        0.0030
     18 C         144.0357  144.4568  163.7827 C.ar    1  UNL1       -0.0001
     19 C         143.5828  144.6986  162.3733 C.ar    1  UNL1       -0.0019
     20 C         142.3350  144.0408  161.8632 C.ar    1  UNL1        0.0071
     21 C         141.5401  143.1411  162.7624 C.ar    1  UNL1        0.0012
     22 C         141.8820  144.2827  160.4538 C.3     1  UNL1        0.1636
     23 O         141.7355  145.6856  159.9435 O.3     1  UNL1       -0.3772
     24 H         141.0195  146.1309  160.4229 H       1  UNL1        0.2109
     25 C         138.4189  138.2262  163.7462 C.3     1  UNL1        0.1090
     26 C         139.5243  137.6306  162.9257 C.3     1  UNL1        0.0246
     27 C         140.8737  137.4007  163.5393 C.3     1  UNL1        0.0020
     28 C         142.1158  137.7111  162.7576 C.3     1  UNL1        0.0006
     29 C         142.8925  138.9608  163.0490 C.3     1  UNL1        0.0096
     30 C         143.0917  139.9878  161.9741 C.3     1  UNL1        0.0871
     31 O         144.6496  141.6964  160.7893 O.2     1  UNL1       -0.2730
     32 C         144.3101  140.8626  161.9891 C.2     1  UNL1        0.2443
     33 N         145.1891  140.9036  163.2040 N.am    1  UNL1       -0.1970
     34 O         146.4075  141.7784  163.2190 O.3     1  UNL1       -0.2952
     35 H         144.9663  140.3563  163.9914 H       1  UNL1        0.1822
     36 H         146.4802  142.2461  162.3723 H       1  UNL1        0.2414
@<TRIPOS>BOND
     1    31    32    2
     2    32    30    1
     3    30    29    1
     4    29    28    1
     5    28    27    1
     6    27    26    1
     7    26    25    1
     8    25     1    1
     9     1     2   ar
    10     2     3   ar
    11     3     4   ar
    12     4     5   ar
    13     5    10    1
    14    10    11    1
    15    11    12    1
    16    12    13    1
    17    13    14    1
    18    14    15    1
    19     5     6   ar
    20     6     7   ar
    21     7    16    1
    22    16    17   ar
    23    17    18   ar
    24    18    19   ar
    25    19    20   ar
    26    20    22    1
    27    22    23    1
    28    20    21   ar
    29     7     8   ar
    30     8     9   ar
    31    32    33   am
    32    33    34    1
    33     9     1   ar
    34     9     4   ar
    35    15    10    1
    36    21    16   ar
    37    23    24    1
    38    33    35    1
    39    34    36    1
@<TRIPOS>MOLECULE
*****
 36 39 0 0 0
SMALL
GASTEIGER

@<TRIPOS>ATOM
      1 N         139.0779  139.3350  163.6757 N.ar    1  UNL1       -0.2944
      2 C         138.8178  139.6089  162.2241 C.ar    1  UNL1        0.1798
      3 N         139.1995  141.0324  161.9452 N.ar    1  UNL1       -0.2194
      4 C         139.6956  141.6384  163.2245 C.ar    1  UNL1        0.1485
      5 C         140.2060  143.0099  163.5537 C.ar    1  UNL1        0.1543
      6 N         140.6412  143.3324  164.9525 N.ar    1  UNL1       -0.2102
      7 C         140.5661  142.2835  166.0219 C.ar    1  UNL1        0.1653
      8 N         140.0557  140.9119  165.6928 N.ar    1  UNL1       -0.2078
      9 C         139.6204  140.5894  164.2940 C.ar    1  UNL1        0.1672
     10 N         140.2812  144.0590  162.4842 N.pl3   1  UNL1       -0.2868
     11 C         141.1469  143.8405  161.2788 C.3     1  UNL1        0.1243
     12 C         141.2221  144.8894  160.2093 C.3     1  UNL1        0.1636
     13 O         140.4316  146.1570  160.3451 O.3     1  UNL1       -0.3501
     14 C         139.5659  146.3755  161.5504 C.3     1  UNL1        0.1636
     15 C         139.4907  145.3265  162.6200 C.3     1  UNL1        0.1243
     16 C         141.0014  142.6060  167.4208 C.ar    1  UNL1        0.0357
     17 C         140.0627  143.3107  168.3547 C.ar    1  UNL1        0.0030
     18 C         140.4980  143.6332  169.7534 C.ar    1  UNL1       -0.0001
     19 C         141.8719  143.2509  170.2183 C.ar    1  UNL1       -0.0019
     20 C         142.8106  142.5462  169.2844 C.ar    1  UNL1        0.0071
     21 C         142.3754  142.2237  167.8856 C.ar    1  UNL1        0.0012
     22 C         144.1846  142.1640  169.7492 C.3     1  UNL1        0.1636
     23 O         145.0753  143.1919  170.3819 O.3     1  UNL1       -0.3772
     24 H         145.3079  143.8665  169.7249 H       1  UNL1        0.2109
     25 C         138.8377  138.0351  164.3846 C.3     1  UNL1        0.1090
     26 C         139.9418  137.3957  165.1733 C.3     1  UNL1        0.0246
     27 C         141.2647  137.1185  164.5228 C.3     1  UNL1        0.0020
     28 C         141.4635  137.4231  163.0676 C.3     1  UNL1        0.0006
     29 C         142.7417  138.0546  162.6013 C.3     1  UNL1        0.0096
     30 C         143.4707  139.0173  163.4910 C.3     1  UNL1        0.0871
     31 O         144.3972  140.2796  161.4178 O.2     1  UNL1       -0.2730
     32 C         144.4086  140.0255  162.8960 C.2     1  UNL1        0.2443
     33 N         145.3579  140.7796  163.7794 N.am    1  UNL1       -0.1970
     34 O         146.2958  141.7878  163.1845 O.3     1  UNL1       -0.2952
     35 H         145.3654  140.6128  164.7497 H       1  UNL1        0.1822
     36 H         146.1598  141.8291  162.2249 H       1  UNL1        0.2414
@<TRIPOS>BOND
     1    31    32    2
     2    32    30    1
     3    30    29    1
     4    29    28    1
     5    28    27    1
     6    27    26    1
     7    26    25    1
     8    25     1    1
     9     1     2   ar
    10     2     3   ar
    11     3     4   ar
    12     4     5   ar
    13     5    10    1
    14    10    11    1
    15    11    12    1
    16    12    13    1
    17    13    14    1
    18    14    15    1
    19     5     6   ar
    20     6     7   ar
    21     7    16    1
    22    16    17   ar
    23    17    18   ar
    24    18    19   ar
    25    19    20   ar
    26    20    22    1
    27    22    23    1
    28    20    21   ar
    29     7     8   ar
    30     8     9   ar
    31    32    33   am
    32    33    34    1
    33     9     1   ar
    34     9     4   ar
    35    15    10    1
    36    21    16   ar
    37    23    24    1
    38    33    35    1
    39    34    36    1
@<TRIPOS>MOLECULE
*****
 36 39 0 0 0
SMALL
GASTEIGER

@<TRIPOS>ATOM
      1 N         143.4301  139.0851  164.7818 N.ar    1  UNL1       -0.2944
      2 C         143.8848  138.4137  166.0436 C.ar    1  UNL1        0.1798
      3 N         143.1638  139.0516  167.1940 N.ar    1  UNL1       -0.2194
      4 C         142.2635  140.1174  166.6430 C.ar    1  UNL1        0.1485
      5 C         141.3152  141.0717  167.3062 C.ar    1  UNL1        0.1543
      6 N         140.5313  142.0467  166.4786 N.ar    1  UNL1       -0.2102
      7 C         140.6959  142.0675  164.9879 C.ar    1  UNL1        0.1653
      8 N         141.6443  141.1131  164.3246 N.ar    1  UNL1       -0.2078
      9 C         142.4281  140.1381  165.1522 C.ar    1  UNL1        0.1672
     10 N         141.1506  141.0510  168.7970 N.pl3   1  UNL1       -0.2868
     11 C         140.1937  140.0864  169.4327 C.3     1  UNL1        0.1243
     12 C         140.0291  140.0656  170.9234 C.3     1  UNL1        0.1636
     13 O         140.8214  141.0096  171.7787 O.3     1  UNL1       -0.3501
     14 C         141.7782  141.9741  171.1431 C.3     1  UNL1        0.1636
     15 C         141.9429  141.9949  169.6522 C.3     1  UNL1        0.1243
     16 C         139.9120  143.0425  164.1603 C.ar    1  UNL1        0.0357
     17 C         138.4559  143.2658  164.4431 C.ar    1  UNL1        0.0030
     18 C         137.6721  144.2408  163.6155 C.ar    1  UNL1       -0.0001
     19 C         138.3444  144.9926  162.5051 C.ar    1  UNL1       -0.0019
     20 C         139.8004  144.7693  162.2223 C.ar    1  UNL1        0.0071
     21 C         140.5842  143.7943  163.0499 C.ar    1  UNL1        0.0012
     22 C         140.4727  145.5210  161.1119 C.3     1  UNL1        0.1636
     23 O         141.8804  145.1810  160.7208 O.3     1  UNL1       -0.3772
     24 H         142.4805  145.3990  161.4511 H       1  UNL1        0.2109
     25 C         143.8956  138.7606  163.3933 C.3     1  UNL1        0.1090
     26 C         142.8943  138.4616  162.3172 C.3     1  UNL1        0.0246
     27 C         142.9728  139.1756  161.0003 C.3     1  UNL1        0.0020
     28 C         143.9607  140.2878  160.8079 C.3     1  UNL1        0.0006
     29 C         143.5469  141.7089  161.0513 C.3     1  UNL1        0.0096
     30 C         144.5669  142.7258  161.4703 C.3     1  UNL1        0.0871
     31 O         144.4776  142.9314  164.0587 O.2     1  UNL1       -0.2730
     32 C         144.3396  143.5532  162.7006 C.2     1  UNL1        0.2443
     33 N         143.9743  145.0025  162.5729 N.am    1  UNL1       -0.1970
     34 O         143.7470  145.8299  163.8032 O.3     1  UNL1       -0.2952
     35 H         143.8838  145.4106  161.6816 H       1  UNL1        0.1822
     36 H         143.8752  145.2792  164.5914 H       1  UNL1        0.2414
@<TRIPOS>BOND
     1    31    32    2
     2    32    30    1
     3    30    29    1
     4    29    28    1
     5    28    27    1
     6    27    26    1
     7    26    25    1
     8    25     1    1
     9     1     2   ar
    10     2     3   ar
    11     3     4   ar
    12     4     5   ar
    13     5    10    1
    14    10    11    1
    15    11    12    1
    16    12    13    1
    17    13    14    1
    18    14    15    1
    19     5     6   ar
    20     6     7   ar
    21     7    16    1
    22    16    17   ar
    23    17    18   ar
    24    18    19   ar
    25    19    20   ar
    26    20    22    1
    27    22    23    1
    28    20    21   ar
    29     7     8   ar
    30     8     9   ar
    31    32    33   am
    32    33    34    1
    33     9     1   ar
    34     9     4   ar
    35    15    10    1
    36    21    16   ar
    37    23    24    1
    38    33    35    1
    39    34    36    1
@<TRIPOS>MOLECULE
*****
 36 39 0 0 0
SMALL
GASTEIGER

@<TRIPOS>ATOM
      1 N         143.3016  143.1552  161.9112 N.ar    1  UNL1       -0.2944
      2 C         143.4163  143.1778  160.4157 C.ar    1  UNL1        0.1798
      3 N         142.3965  142.2296  159.8582 N.ar    1  UNL1       -0.2194
      4 C         141.6515  141.6210  161.0091 C.ar    1  UNL1        0.1485
      5 C         140.5359  140.6198  161.0657 C.ar    1  UNL1        0.1543
      6 N         139.9799  140.1906  162.3911 N.ar    1  UNL1       -0.2102
      7 C         140.5393  140.7627  163.6598 C.ar    1  UNL1        0.1653
      8 N         141.6548  141.7639  163.6032 N.ar    1  UNL1       -0.2078
      9 C         142.2109  142.1930  162.2779 C.ar    1  UNL1        0.1672
     10 N         139.9765  140.0477  159.7969 N.pl3   1  UNL1       -0.2868
     11 C         138.9235  140.7979  159.0362 C.3     1  UNL1        0.1243
     12 C         138.3641  140.2259  157.7675 C.3     1  UNL1        0.1636
     13 O         138.8576  138.9036  157.2593 O.3     1  UNL1       -0.3501
     14 C         139.9105  138.1535  158.0200 C.3     1  UNL1        0.1636
     15 C         140.4700  138.7255  159.2888 C.3     1  UNL1        0.1243
     16 C         139.9831  140.3335  164.9852 C.ar    1  UNL1        0.0357
     17 C         140.3092  141.1144  166.2237 C.ar    1  UNL1        0.0030
     18 C         139.7531  140.6853  167.5490 C.ar    1  UNL1       -0.0001
     19 C         138.8709  139.4752  167.6359 C.ar    1  UNL1       -0.0019
     20 C         138.5449  138.6943  166.3974 C.ar    1  UNL1        0.0071
     21 C         139.1010  139.1234  165.0721 C.ar    1  UNL1        0.0012
     22 C         137.6628  137.4842  166.4843 C.3     1  UNL1        0.1636
     23 O         136.9190  137.1878  167.7529 O.3     1  UNL1       -0.3772
     24 H         137.5520  136.9782  168.4573 H       1  UNL1        0.2109
     25 C         144.1319  143.9545  162.8713 C.3     1  UNL1        0.1090
     26 C         143.5446  145.1558  163.5509 C.3     1  UNL1        0.0246
     27 C         142.0718  145.2149  163.8290 C.3     1  UNL1        0.0020
     28 C         141.1281  145.7075  162.7722 C.3     1  UNL1        0.0006
     29 C         139.8916  144.9234  162.4463 C.3     1  UNL1        0.0096
     30 C         138.8734  144.6508  163.5135 C.3     1  UNL1        0.0871
     31 O         137.5056  142.8315  164.7661 O.2     1  UNL1       -0.2730
     32 C         138.0921  143.3705  163.4951 C.2     1  UNL1        0.2443
     33 N         137.8974  142.6291  162.2057 N.am    1  UNL1       -0.1970
     34 O         137.1161  141.3488  162.1873 O.3     1  UNL1       -0.2952
     35 H         138.2824  142.9828  161.3715 H       1  UNL1        0.1822
     36 H         136.8098  141.1440  163.0846 H       1  UNL1        0.2414
@<TRIPOS>BOND
     1    31    32    2
     2    32    30    1
     3    30    29    1
     4    29    28    1
     5    28    27    1
     6    27    26    1
     7    26    25    1
     8    25     1    1
     9     1     2   ar
    10     2     3   ar
    11     3     4   ar
    12     4     5   ar
    13     5    10    1
    14    10    11    1
    15    11    12    1
    16    12    13    1
    17    13    14    1
    18    14    15    1
    19     5     6   ar
    20     6     7   ar
    21     7    16    1
    22    16    17   ar
    23    17    18   ar
    24    18    19   ar
    25    19    20   ar
    26    20    22    1
    27    22    23    1
    28    20    21   ar
    29     7     8   ar
    30     8     9   ar
    31    32    33   am
    32    33    34    1
    33     9     1   ar
    34     9     4   ar
    35    15    10    1
    36    21    16   ar
    37    23    24    1
    38    33    35    1
    39    34    36    1
@<TRIPOS>MOLECULE
*****
 36 39 0 0 0
SMALL
GASTEIGER

@<TRIPOS>ATOM
      1 N         144.2735  142.6263  164.8286 N.ar    1  UNL1       -0.2944
      2 C         144.7315  143.2812  166.0979 C.ar    1  UNL1        0.1798
      3 N         143.7197  142.9834  167.1645 N.ar    1  UNL1       -0.2194
      4 C         142.6363  142.1443  166.5543 C.ar    1  UNL1        0.1485
      5 C         141.3824  141.5527  167.1267 C.ar    1  UNL1        0.1543
      6 N         140.4708  140.7404  166.2555 N.ar    1  UNL1       -0.2102
      7 C         140.8130  140.5197  164.8119 C.ar    1  UNL1        0.1653
      8 N         142.0670  141.1113  164.2394 N.ar    1  UNL1       -0.2078
      9 C         142.9786  141.9236  165.1106 C.ar    1  UNL1        0.1672
     10 N         141.0402  141.7733  168.5704 N.pl3   1  UNL1       -0.2868
     11 C         141.3851  140.7295  169.5910 C.3     1  UNL1        0.1243
     12 C         141.0428  140.9501  171.0346 C.3     1  UNL1        0.1636
     13 O         140.3557  142.2146  171.4578 O.3     1  UNL1       -0.3501
     14 C         140.0108  143.2584  170.4372 C.3     1  UNL1        0.1636
     15 C         140.3530  143.0378  168.9935 C.3     1  UNL1        0.1243
     16 C         139.9013  139.7074  163.9406 C.ar    1  UNL1        0.0357
     17 C         139.6826  138.2528  164.2344 C.ar    1  UNL1        0.0030
     18 C         138.7710  137.4405  163.3632 C.ar    1  UNL1       -0.0001
     19 C         138.0780  138.0828  162.1982 C.ar    1  UNL1       -0.0019
     20 C         138.2966  139.5374  161.9044 C.ar    1  UNL1        0.0071
     21 C         139.2083  140.3497  162.7757 C.ar    1  UNL1        0.0012
     22 C         137.6037  140.1798  160.7394 C.3     1  UNL1        0.1636
     23 O         138.1967  141.3957  160.0915 O.3     1  UNL1       -0.3772
     24 H         138.1812  142.1361  160.7180 H       1  UNL1        0.2109
     25 C         144.9853  142.6669  163.5089 C.3     1  UNL1        0.1090
     26 C         144.5071  143.5890  162.4268 C.3     1  UNL1        0.0246
     27 C         143.6045  144.7382  162.7654 C.3     1  UNL1        0.0020
     28 C         142.1373  144.6534  162.4648 C.3     1  UNL1        0.0006
     29 C         141.1409  145.2398  163.4204 C.3     1  UNL1        0.0096
     30 C         140.2929  144.3376  164.2671 C.3     1  UNL1        0.0871
     31 O         138.0243  143.1325  164.6561 O.2     1  UNL1       -0.2730
     32 C         138.9924  143.8131  163.7345 C.2     1  UNL1        0.2443
     33 N         138.6601  143.9692  162.2800 N.am    1  UNL1       -0.1970
     34 O         137.3596  143.4447  161.7474 O.3     1  UNL1       -0.2952
     35 H         139.2955  144.4159  161.6751 H       1  UNL1        0.1822
     36 H         136.8555  143.0371  162.4690 H       1  UNL1        0.2414
@<TRIPOS>BOND
     1    31    32    2
     2    32    30    1
     3    30    29    1
     4    29    28    1
     5    28    27    1
     6    27    26    1
     7    26    25    1
     8    25     1    1
     9     1     2   ar
    10     2     3   ar
    11     3     4   ar
    12     4     5   ar
    13     5    10    1
    14    10    11    1
    15    11    12    1
    16    12    13    1
    17    13    14    1
    18    14    15    1
    19     5     6   ar
    20     6     7   ar
    21     7    16    1
    22    16    17   ar
    23    17    18   ar
    24    18    19   ar
    25    19    20   ar
    26    20    22    1
    27    22    23    1
    28    20    21   ar
    29     7     8   ar
    30     8     9   ar
    31    32    33   am
    32    33    34    1
    33     9     1   ar
    34     9     4   ar
    35    15    10    1
    36    21    16   ar
    37    23    24    1
    38    33    35    1
    39    34    36    1
@<TRIPOS>MOLECULE
*****
 36 39 0 0 0
SMALL
GASTEIGER

@<TRIPOS>ATOM
      1 N         144.4528  141.8714  163.4901 N.ar    1  UNL1       -0.2944
      2 C         145.0266  141.8138  162.1054 C.ar    1  UNL1        0.1798
      3 N         144.1343  140.9447  161.2696 N.ar    1  UNL1       -0.2194
      4 C         143.0089  140.4652  162.1378 C.ar    1  UNL1        0.1485
      5 C         141.8304  139.5811  161.8561 C.ar    1  UNL1        0.1543
      6 N         140.8488  139.2697  162.9466 N.ar    1  UNL1       -0.2102
      7 C         141.0456  139.8424  164.3189 C.ar    1  UNL1        0.1653
      8 N         142.2241  140.7266  164.6007 N.ar    1  UNL1       -0.2078
      9 C         143.2058  141.0380  163.5101 C.ar    1  UNL1        0.1672
     10 N         141.6336  139.0084  160.4837 N.pl3   1  UNL1       -0.2868
     11 C         140.3293  139.2046  159.7691 C.3     1  UNL1        0.1243
     12 C         140.1324  138.6320  158.3969 C.3     1  UNL1        0.1636
     13 O         141.2398  137.8630  157.7391 O.3     1  UNL1       -0.3501
     14 C         142.5439  137.6667  158.4537 C.3     1  UNL1        0.1636
     15 C         142.7409  138.2394  159.8260 C.3     1  UNL1        0.1243
     16 C         140.0638  139.5309  165.4095 C.ar    1  UNL1        0.0357
     17 C         138.9110  138.6098  165.1403 C.ar    1  UNL1        0.0030
     18 C         137.9293  138.2984  166.2308 C.ar    1  UNL1       -0.0001
     19 C         138.1005  138.9081  167.5906 C.ar    1  UNL1       -0.0019
     20 C         139.2534  139.8292  167.8598 C.ar    1  UNL1        0.0071
     21 C         140.2350  140.1406  166.7692 C.ar    1  UNL1        0.0012
     22 C         139.4245  140.4389  169.2196 C.3     1  UNL1        0.1636
     23 O         138.5213  140.0284  170.3447 O.3     1  UNL1       -0.3772
     24 H         137.6145  140.3135  170.1518 H       1  UNL1        0.2109
     25 C         145.0254  142.6294  164.6510 C.3     1  UNL1        0.1090
     26 C         144.2609  143.7718  165.2512 C.3     1  UNL1        0.0246
     27 C         143.9980  145.0064  164.4409 C.3     1  UNL1        0.0020
     28 C         142.7423  145.1165  163.6277 C.3     1  UNL1        0.0006
     29 C         141.4596  144.5372  164.1465 C.3     1  UNL1        0.0096
     30 C         140.5074  143.8608  163.2053 C.3     1  UNL1        0.0871
     31 O         138.6272  144.0208  161.4195 O.2     1  UNL1       -0.2730
     32 C         139.6880  144.6785  162.2514 C.2     1  UNL1        0.2443
     33 N         139.9293  146.1540  162.1295 N.am    1  UNL1       -0.1970
     34 O         139.1099  146.9717  161.1756 O.3     1  UNL1       -0.2952
     35 H         140.6256  146.5857  162.6756 H       1  UNL1        0.1822
     36 H         138.4749  146.3971  160.7201 H       1  UNL1        0.2414
@<TRIPOS>BOND
     1    31    32    2
     2    32    30    1
     3    30    29    1
     4    29    28    1
     5    28    27    1
     6    27    26    1
     7    26    25    1
     8    25     1    1
     9     1     2   ar
    10     2     3   ar
    11     3     4   ar
    12     4     5   ar
    13     5    10    1
    14    10    11    1
    15    11    12    1
    16    12    13    1
    17    13    14    1
    18    14    15    1
    19     5     6   ar
    20     6     7   ar
    21     7    16    1
    22    16    17   ar
    23    17    18   ar
    24    18    19   ar
    25    19    20   ar
    26    20    22    1
    27    22    23    1
    28    20    21   ar
    29     7     8   ar
    30     8     9   ar
    31    32    33   am
    32    33    34    1
    33     9     1   ar
    34     9     4   ar
    35    15    10    1
    36    21    16   ar
    37    23    24    1
    38    33    35    1
    39    34    36    1
@<TRIPOS>MOLECULE
*****
 36 39 0 0 0
SMALL
GASTEIGER

@<TRIPOS>ATOM
      1 N         143.4642  139.2734  164.7188 N.ar    1  UNL1       -0.2944
      2 C         143.4637  138.5787  166.0482 C.ar    1  UNL1        0.1798
      3 N         142.5265  139.3174  166.9570 N.ar    1  UNL1       -0.2194
      4 C         141.9476  140.4687  166.1892 C.ar    1  UNL1        0.1485
      5 C         140.9677  141.5383  166.5709 C.ar    1  UNL1        0.1543
      6 N         140.5674  142.5807  165.5694 N.ar    1  UNL1       -0.2102
      7 C         141.1469  142.5536  164.1862 C.ar    1  UNL1        0.1653
      8 N         142.1269  141.4839  163.8044 N.ar    1  UNL1       -0.2078
      9 C         142.5272  140.4415  164.8059 C.ar    1  UNL1        0.1672
     10 N         140.3882  141.5655  167.9542 N.pl3   1  UNL1       -0.2868
     11 C         139.6023  140.3927  168.4613 C.3     1  UNL1        0.1243
     12 C         139.0228  140.4198  169.8445 C.3     1  UNL1        0.1636
     13 O         139.2290  141.6197  170.7207 O.3     1  UNL1       -0.3501
     14 C         140.0148  142.7925  170.2136 C.3     1  UNL1        0.1636
     15 C         140.5944  142.7654  168.8303 C.3     1  UNL1        0.1243
     16 C         140.7465  143.5961  163.1847 C.ar    1  UNL1        0.0357
     17 C         139.7188  144.6273  163.5456 C.ar    1  UNL1        0.0030
     18 C         139.3184  145.6697  162.5440 C.ar    1  UNL1       -0.0001
     19 C         139.9459  145.6809  161.1816 C.ar    1  UNL1       -0.0019
     20 C         140.9736  144.6497  160.8207 C.ar    1  UNL1        0.0071
     21 C         141.3740  143.6073  161.8222 C.ar    1  UNL1        0.0012
     22 C         141.6011  144.6609  159.4583 C.3     1  UNL1        0.1636
     23 O         142.0880  145.9509  158.8674 O.3     1  UNL1       -0.3772
     24 H         141.3326  146.5367  158.7032 H       1  UNL1        0.2109
     25 C         144.2616  138.8708  163.5138 C.3     1  UNL1        0.1090
     26 C         143.6094  138.8248  162.1639 C.3     1  UNL1        0.0246
     27 C         142.6312  137.7347  161.8403 C.3     1  UNL1        0.0020
     28 C         141.1582  137.9845  161.9748 C.3     1  UNL1        0.0006
     29 C         140.4750  137.7513  163.2897 C.3     1  UNL1        0.0096
     30 C         138.9860  137.8974  163.3975 C.3     1  UNL1        0.0871
     31 O         137.6813  139.8004  162.2033 O.2     1  UNL1       -0.2730
     32 C         138.3665  139.2632  163.4247 C.2     1  UNL1        0.2443
     33 N         138.4322  140.0919  164.6734 N.am    1  UNL1       -0.1970
     34 O         137.8126  141.4577  164.7006 O.3     1  UNL1       -0.2952
     35 H         138.8819  139.7393  165.4751 H       1  UNL1        0.1822
     36 H         137.4148  141.6495  163.8369 H       1  UNL1        0.2414
@<TRIPOS>BOND
     1    31    32    2
     2    32    30    1
     3    30    29    1
     4    29    28    1
     5    28    27    1
     6    27    26    1
     7    26    25    1
     8    25     1    1
     9     1     2   ar
    10     2     3   ar
    11     3     4   ar
    12     4     5   ar
    13     5    10    1
    14    10    11    1
    15    11    12    1
    16    12    13    1
    17    13    14    1
    18    14    15    1
    19     5     6   ar
    20     6     7   ar
    21     7    16    1
    22    16    17   ar
    23    17    18   ar
    24    18    19   ar
    25    19    20   ar
    26    20    22    1
    27    22    23    1
    28    20    21   ar
    29     7     8   ar
    30     8     9   ar
    31    32    33   am
    32    33    34    1
    33     9     1   ar
    34     9     4   ar
    35    15    10    1
    36    21    16   ar
    37    23    24    1
    38    33    35    1
    39    34    36    1
