@<TRIPOS>MOLECULE
*****
 29 34 0 0 0
SMALL
GASTEIGER

@<TRIPOS>ATOM
      1 N         139.1058  144.2492  164.8549 N.pl3   1  UNL1       -0.3133
      2 C         138.8827  143.3251  163.6945 C.2     1  UNL1        0.2770
      3 N         138.8684  141.8263  163.7511 N.2     1  UNL1       -0.2204
      4 C         138.6115  141.3127  162.3653 C.3     1  UNL1        0.1537
      5 C         138.4671  142.4941  161.4524 C.3     1  UNL1        0.2350
      6 O         138.6346  143.7378  162.2739 O.2     1  UNL1       -0.4478
      7 C         138.7785  140.2343  163.3946 C.ar    1  UNL1        0.0355
      8 C         139.0411  140.5979  164.8259 C.ar    1  UNL1        0.0005
      9 C         139.2081  139.5195  165.8552 C.ar    1  UNL1       -0.0000
     10 C         139.1125  138.0776  165.4530 C.ar    1  UNL1        0.0029
     11 C         138.8499  137.7140  164.0216 C.ar    1  UNL1        0.0366
     12 C         138.6829  138.7924  162.9924 C.ar    1  UNL1        0.1364
     13 O         138.4203  138.4288  161.5610 O.3     1  UNL1       -0.4756
     14 C         138.2533  139.5072  160.5318 C.3     1  UNL1        0.2074
     15 C         138.3489  140.9491  160.9340 C.3     1  UNL1        0.0666
     16 C         138.3077  142.4041  160.5719 C.3     1  UNL1        0.0061
     17 C         138.1009  141.3618  159.5133 C.3     1  UNL1        0.0061
     18 H         139.2612  143.8809  165.7546 H       1  UNL1        0.1466
     19 H         139.0969  145.2239  164.7168 H       1  UNL1        0.1466
     20 C         139.4707  139.8831  167.2865 C.2     1  UNL1        0.0292
     21 C         138.4752  139.5186  168.3477 C.2     1  UNL1        0.2320
     22 N         138.7378  139.8822  169.7791 N.2     1  UNL1       -0.0311
     23 C         139.9960  140.6103  170.1493 C.2     1  UNL1        0.3728
     24 N         140.5234  141.0971  171.4664 N.2     1  UNL1       -0.0298
     25 C         141.8448  141.7623  171.2193 C.2     1  UNL1        0.2471
     26 C         142.1342  141.6867  169.7494 C.2     1  UNL1        0.1081
     27 CL        143.3523  142.2281  169.0616 Cl      1  UNL1       -0.0783
     28 C         140.9915  140.9747  169.0881 C.2     1  UNL1        0.0849
     29 C         140.7288  140.6111  167.6567 C.3     1  UNL1        0.0654
@<TRIPOS>BOND
     1     1     2    1
     2     2     3    2
     3     3     4    1
     4     4     5    1
     5     5     6    1
     6     4     7    1
     7     7     8   ar
     8     8     9   ar
     9     9    20    1
    10    20    21    2
    11    21    22    1
    12    22    23    2
    13    23    24    1
    14    24    25    2
    15    25    26    1
    16    26    27    1
    17    26    28    2
    18    28    29    1
    19     9    10   ar
    20    10    11   ar
    21    11    12   ar
    22    12    13    1
    23    13    14    1
    24    14    15    1
    25    15    16    1
    26    16    17    1
    27     6     2    1
    28    12     7   ar
    29    17    15    1
    30    15     4    1
    31    29    20    1
    32    28    23    1
    33     1    18    1
    34     1    19    1
@<TRIPOS>MOLECULE
*****
 29 34 0 0 0
SMALL
GASTEIGER

@<TRIPOS>ATOM
      1 N         143.7152  140.7642  162.8880 N.pl3   1  UNL1       -0.3133
      2 C         142.9902  141.8779  162.1922 C.2     1  UNL1        0.2770
      3 N         141.8733  142.6975  162.7672 N.2     1  UNL1       -0.2204
      4 C         141.4477  143.6937  161.7295 C.3     1  UNL1        0.1537
      5 C         142.3018  143.4897  160.5134 C.3     1  UNL1        0.2350
      6 O         143.2551  142.3676  160.7993 O.2     1  UNL1       -0.4478
      7 C         140.6741  143.7800  163.0118 C.ar    1  UNL1        0.0355
      8 C         140.9890  142.8456  164.1421 C.ar    1  UNL1        0.0005
      9 C         140.2155  142.9320  165.4244 C.ar    1  UNL1       -0.0000
     10 C         139.1270  143.9528  165.5763 C.ar    1  UNL1        0.0029
     11 C         138.8121  144.8873  164.4459 C.ar    1  UNL1        0.0366
     12 C         139.5857  144.8009  163.1637 C.ar    1  UNL1        0.1364
     13 O         139.2708  145.7354  162.0333 O.3     1  UNL1       -0.4756
     14 C         140.0443  145.6490  160.7511 C.3     1  UNL1        0.2074
     15 C         141.1328  144.6281  160.5992 C.3     1  UNL1        0.0666
     16 C         142.2078  143.9889  159.7712 C.3     1  UNL1        0.0061
     17 C         141.3976  145.1177  159.2063 C.3     1  UNL1        0.0061
     18 H         143.4677  140.5146  163.8076 H       1  UNL1        0.1466
     19 H         144.4386  140.2828  162.4251 H       1  UNL1        0.1466
     20 C         140.5304  141.9975  166.5547 C.2     1  UNL1        0.0292
     21 C         139.6931  140.7717  166.7698 C.2     1  UNL1        0.2320
     22 N         140.0080  139.8372  167.9001 N.2     1  UNL1       -0.0311
     23 C         141.1602  140.1286  168.8153 C.2     1  UNL1        0.3728
     24 N         141.7071  139.3967  170.0049 N.2     1  UNL1       -0.0298
     25 C         142.8823  140.1701  170.5250 C.2     1  UNL1        0.2471
     26 C         143.0619  141.3801  169.6568 C.2     1  UNL1        0.1081
     27 CL        144.1199  142.4312  169.8171 Cl      1  UNL1       -0.0783
     28 C         141.9975  141.3544  168.6001 C.2     1  UNL1        0.0849
     29 C         141.6826  142.2889  167.4698 C.3     1  UNL1        0.0654
@<TRIPOS>BOND
     1     1     2    1
     2     2     3    2
     3     3     4    1
     4     4     5    1
     5     5     6    1
     6     4     7    1
     7     7     8   ar
     8     8     9   ar
     9     9    20    1
    10    20    21    2
    11    21    22    1
    12    22    23    2
    13    23    24    1
    14    24    25    2
    15    25    26    1
    16    26    27    1
    17    26    28    2
    18    28    29    1
    19     9    10   ar
    20    10    11   ar
    21    11    12   ar
    22    12    13    1
    23    13    14    1
    24    14    15    1
    25    15    16    1
    26    16    17    1
    27     6     2    1
    28    12     7   ar
    29    17    15    1
    30    15     4    1
    31    29    20    1
    32    28    23    1
    33     1    18    1
    34     1    19    1
@<TRIPOS>MOLECULE
*****
 29 34 0 0 0
SMALL
GASTEIGER

@<TRIPOS>ATOM
      1 N         144.2654  142.0022  165.0869 N.pl3   1  UNL1       -0.3133
      2 C         143.8518  141.1858  163.8983 C.2     1  UNL1        0.2770
      3 N         142.6781  140.2541  163.8341 N.2     1  UNL1       -0.2204
      4 C         142.6402  139.6503  162.4615 C.3     1  UNL1        0.1537
      5 C         143.7905  140.2090  161.6775 C.3     1  UNL1        0.2350
      6 O         144.5393  141.1580  162.5655 O.2     1  UNL1       -0.4478
      7 C         141.5394  139.1800  163.3655 C.ar    1  UNL1        0.0355
      8 C         141.4494  139.6986  164.7701 C.ar    1  UNL1        0.0005
      9 C         140.3486  139.2283  165.6741 C.ar    1  UNL1       -0.0000
     10 C         139.3379  138.2395  165.1735 C.ar    1  UNL1        0.0029
     11 C         139.4280  137.7209  163.7688 C.ar    1  UNL1        0.0366
     12 C         140.5287  138.1912  162.8648 C.ar    1  UNL1        0.1364
     13 O         140.6188  137.6727  161.4601 O.3     1  UNL1       -0.4756
     14 C         141.7195  138.1430  160.5562 C.3     1  UNL1        0.2074
     15 C         142.7302  139.1318  161.0569 C.3     1  UNL1        0.0666
     16 C         143.9493  139.9742  160.8240 C.3     1  UNL1        0.0061
     17 C         143.4177  139.1039  159.7240 C.3     1  UNL1        0.0061
     18 H         143.7473  141.9526  165.9226 H       1  UNL1        0.1466
     19 H         145.0549  142.5877  165.0312 H       1  UNL1        0.1466
     20 C         140.2586  139.7468  167.0787 C.2     1  UNL1        0.0292
     21 C         139.0022  139.5462  167.8732 C.2     1  UNL1        0.2320
     22 N         138.9122  140.0647  169.2778 N.2     1  UNL1       -0.0311
     23 C         140.0786  140.7839  169.8880 C.2     1  UNL1        0.3728
     24 N         140.2814  141.4016  171.2398 N.2     1  UNL1       -0.0298
     25 C         141.6631  141.9839  171.2808 C.2     1  UNL1        0.2471
     26 C         142.3143  141.7263  169.9543 C.2     1  UNL1        0.1081
     27 CL        143.7012  142.1379  169.5582 Cl      1  UNL1       -0.0783
     28 C         141.3350  140.9846  169.0935 C.2     1  UNL1        0.0849
     29 C         141.4250  140.4660  167.6888 C.3     1  UNL1        0.0654
@<TRIPOS>BOND
     1     1     2    1
     2     2     3    2
     3     3     4    1
     4     4     5    1
     5     5     6    1
     6     4     7    1
     7     7     8   ar
     8     8     9   ar
     9     9    20    1
    10    20    21    2
    11    21    22    1
    12    22    23    2
    13    23    24    1
    14    24    25    2
    15    25    26    1
    16    26    27    1
    17    26    28    2
    18    28    29    1
    19     9    10   ar
    20    10    11   ar
    21    11    12   ar
    22    12    13    1
    23    13    14    1
    24    14    15    1
    25    15    16    1
    26    16    17    1
    27     6     2    1
    28    12     7   ar
    29    17    15    1
    30    15     4    1
    31    29    20    1
    32    28    23    1
    33     1    18    1
    34     1    19    1
@<TRIPOS>MOLECULE
*****
 29 34 0 0 0
SMALL
GASTEIGER

@<TRIPOS>ATOM
      1 N         143.6469  141.8919  165.4397 N.pl3   1  UNL1       -0.3133
      2 C         142.7939  141.7481  166.6652 C.2     1  UNL1        0.2770
      3 N         141.5283  140.9499  166.7697 N.2     1  UNL1       -0.2204
      4 C         141.0090  141.0858  168.1705 C.3     1  UNL1        0.1537
      5 C         141.9538  141.9680  168.9315 C.3     1  UNL1        0.2350
      6 O         143.0569  142.3773  168.0012 O.2     1  UNL1       -0.4478
      7 C         140.1586  140.2235  167.2855 C.ar    1  UNL1        0.0355
      8 C         140.5535  139.9960  165.8564 C.ar    1  UNL1        0.0005
      9 C         139.7031  139.1337  164.9714 C.ar    1  UNL1       -0.0000
     10 C         138.4577  138.4989  165.5155 C.ar    1  UNL1        0.0029
     11 C         138.0628  138.7264  166.9446 C.ar    1  UNL1        0.0366
     12 C         138.9132  139.5887  167.8296 C.ar    1  UNL1        0.1364
     13 O         138.5183  139.8162  169.2587 O.3     1  UNL1       -0.4756
     14 C         139.3687  140.6785  170.1436 C.3     1  UNL1        0.2074
     15 C         140.6141  141.3133  169.5995 C.3     1  UNL1        0.0666
     16 C         141.8241  142.1777  169.7963 C.3     1  UNL1        0.0061
     17 C         140.8771  141.9425  170.9356 C.3     1  UNL1        0.0061
     18 H         143.3898  141.4376  164.6049 H       1  UNL1        0.1466
     19 H         144.4638  142.4405  165.4701 H       1  UNL1        0.1466
     20 C         140.0980  138.9062  163.5424 C.2     1  UNL1        0.0292
     21 C         139.1421  138.2413  162.5968 C.2     1  UNL1        0.2320
     22 N         139.5371  138.0138  161.1677 N.2     1  UNL1       -0.0311
     23 C         140.8880  138.4512  160.6842 C.2     1  UNL1        0.3728
     24 N         141.5513  138.3610  159.3418 N.2     1  UNL1       -0.0298
     25 C         142.9170  138.9702  159.4578 C.2     1  UNL1        0.2471
     26 C         143.0979  139.4368  160.8718 C.2     1  UNL1        0.1081
     27 CL        144.3186  140.1066  161.4299 Cl      1  UNL1       -0.0783
     28 C         141.8439  139.1161  161.6298 C.2     1  UNL1        0.0849
     29 C         141.4489  139.3436  163.0589 C.3     1  UNL1        0.0654
@<TRIPOS>BOND
     1     1     2    1
     2     2     3    2
     3     3     4    1
     4     4     5    1
     5     5     6    1
     6     4     7    1
     7     7     8   ar
     8     8     9   ar
     9     9    20    1
    10    20    21    2
    11    21    22    1
    12    22    23    2
    13    23    24    1
    14    24    25    2
    15    25    26    1
    16    26    27    1
    17    26    28    2
    18    28    29    1
    19     9    10   ar
    20    10    11   ar
    21    11    12   ar
    22    12    13    1
    23    13    14    1
    24    14    15    1
    25    15    16    1
    26    16    17    1
    27     6     2    1
    28    12     7   ar
    29    17    15    1
    30    15     4    1
    31    29    20    1
    32    28    23    1
    33     1    18    1
    34     1    19    1
@<TRIPOS>MOLECULE
*****
 29 34 0 0 0
SMALL
GASTEIGER

@<TRIPOS>ATOM
      1 N         143.0149  142.4028  164.0192 N.pl3   1  UNL1       -0.3133
      2 C         142.7338  142.1251  165.4663 C.2     1  UNL1        0.2770
      3 N         141.5791  141.3330  166.0038 N.2     1  UNL1       -0.2204
      4 C         141.6898  141.3091  167.4996 C.3     1  UNL1        0.1537
      5 C         142.9130  142.0865  167.8863 C.3     1  UNL1        0.2350
      6 O         143.5582  142.5908  166.6297 O.2     1  UNL1       -0.4478
      7 C         140.5027  140.5650  166.9637 C.ar    1  UNL1        0.0355
      8 C         140.2619  140.5025  165.4845 C.ar    1  UNL1        0.0005
      9 C         139.0748  139.7584  164.9486 C.ar    1  UNL1       -0.0000
     10 C         138.1285  139.0769  165.8919 C.ar    1  UNL1        0.0029
     11 C         138.3693  139.1394  167.3712 C.ar    1  UNL1        0.0366
     12 C         139.5563  139.8835  167.9071 C.ar    1  UNL1        0.1364
     13 O         139.7971  139.9460  169.3863 O.3     1  UNL1       -0.4756
     14 C         140.9842  140.6900  169.9222 C.3     1  UNL1        0.2074
     15 C         141.9305  141.3716  168.9788 C.3     1  UNL1        0.0666
     16 C         143.1622  142.1947  168.7436 C.3     1  UNL1        0.0061
     17 C         142.7549  141.8373  170.1423 C.3     1  UNL1        0.0061
     18 H         142.4119  142.0521  163.3245 H       1  UNL1        0.1466
     19 H         143.8024  142.9358  163.7642 H       1  UNL1        0.1466
     20 C         138.8341  139.6960  163.4694 C.2     1  UNL1        0.0292
     21 C         138.4221  138.4029  162.8305 C.2     1  UNL1        0.2320
     22 N         138.1813  138.3404  161.3513 N.2     1  UNL1       -0.0311
     23 C         138.3526  139.5710  160.5109 C.2     1  UNL1        0.3728
     24 N         138.1871  139.8129  159.0398 N.2     1  UNL1       -0.0298
     25 C         138.4968  141.2554  158.7695 C.2     1  UNL1        0.2471
     26 C         138.8537  141.9051  160.0735 C.2     1  UNL1        0.1081
     27 CL        139.2331  143.3434  160.2673 Cl      1  UNL1       -0.0783
     28 C         138.7646  140.8641  161.1497 C.2     1  UNL1        0.0849
     29 C         139.0053  140.9266  162.6290 C.3     1  UNL1        0.0654
@<TRIPOS>BOND
     1     1     2    1
     2     2     3    2
     3     3     4    1
     4     4     5    1
     5     5     6    1
     6     4     7    1
     7     7     8   ar
     8     8     9   ar
     9     9    20    1
    10    20    21    2
    11    21    22    1
    12    22    23    2
    13    23    24    1
    14    24    25    2
    15    25    26    1
    16    26    27    1
    17    26    28    2
    18    28    29    1
    19     9    10   ar
    20    10    11   ar
    21    11    12   ar
    22    12    13    1
    23    13    14    1
    24    14    15    1
    25    15    16    1
    26    16    17    1
    27     6     2    1
    28    12     7   ar
    29    17    15    1
    30    15     4    1
    31    29    20    1
    32    28    23    1
    33     1    18    1
    34     1    19    1
@<TRIPOS>MOLECULE
*****
 29 34 0 0 0
SMALL
GASTEIGER

@<TRIPOS>ATOM
      1 N         145.0328  139.5607  163.3292 N.pl3   1  UNL1       -0.3133
      2 C         144.0000  139.2782  162.2786 C.2     1  UNL1        0.2770
      3 N         142.5287  139.1049  162.5129 N.2     1  UNL1       -0.2204
      4 C         141.8766  138.8390  161.1884 C.3     1  UNL1        0.1537
      5 C         142.9451  138.8481  160.1356 C.3     1  UNL1        0.2350
      6 O         144.2574  139.1195  160.8094 O.2     1  UNL1       -0.4478
      7 C         140.9220  138.8596  162.3453 C.ar    1  UNL1        0.0355
      8 C         141.4308  139.1139  163.7331 C.ar    1  UNL1        0.0005
      9 C         140.4762  139.1345  164.8900 C.ar    1  UNL1       -0.0000
     10 C         139.0127  138.9006  164.6589 C.ar    1  UNL1        0.0029
     11 C         138.5038  138.6463  163.2709 C.ar    1  UNL1        0.0366
     12 C         139.4584  138.6257  162.1141 C.ar    1  UNL1        0.1364
     13 O         138.9496  138.3714  160.7262 O.3     1  UNL1       -0.4756
     14 C         139.9042  138.3508  159.5694 C.3     1  UNL1        0.2074
     15 C         141.3677  138.5847  159.8005 C.3     1  UNL1        0.0666
     16 C         142.7638  138.7078  159.2660 C.3     1  UNL1        0.0061
     17 C         141.6251  138.4260  158.3313 C.3     1  UNL1        0.0061
     18 H         144.7644  139.6482  164.2724 H       1  UNL1        0.1466
     19 H         145.9790  139.6585  163.0755 H       1  UNL1        0.1466
     20 C         140.9851  139.3888  166.2779 C.2     1  UNL1        0.0292
     21 C         142.4532  139.2886  166.5685 C.2     1  UNL1        0.2320
     22 N         142.9621  139.5430  167.9564 N.2     1  UNL1       -0.0311
     23 C         142.0028  139.8976  169.0538 C.2     1  UNL1        0.3728
     24 N         142.2092  140.2010  170.5082 N.2     1  UNL1       -0.0298
     25 C         140.8686  140.4887  171.1164 C.2     1  UNL1        0.2471
     26 C         139.8337  140.3631  170.0380 C.2     1  UNL1        0.1081
     27 CL        138.3570  140.5671  170.2049 Cl      1  UNL1       -0.0783
     28 C         140.5347  139.9978  168.7632 C.2     1  UNL1        0.0849
     29 C         140.0258  139.7434  167.3752 C.3     1  UNL1        0.0654
@<TRIPOS>BOND
     1     1     2    1
     2     2     3    2
     3     3     4    1
     4     4     5    1
     5     5     6    1
     6     4     7    1
     7     7     8   ar
     8     8     9   ar
     9     9    20    1
    10    20    21    2
    11    21    22    1
    12    22    23    2
    13    23    24    1
    14    24    25    2
    15    25    26    1
    16    26    27    1
    17    26    28    2
    18    28    29    1
    19     9    10   ar
    20    10    11   ar
    21    11    12   ar
    22    12    13    1
    23    13    14    1
    24    14    15    1
    25    15    16    1
    26    16    17    1
    27     6     2    1
    28    12     7   ar
    29    17    15    1
    30    15     4    1
    31    29    20    1
    32    28    23    1
    33     1    18    1
    34     1    19    1
@<TRIPOS>MOLECULE
*****
 29 34 0 0 0
SMALL
GASTEIGER

@<TRIPOS>ATOM
      1 N         137.7027  141.0184  164.7194 N.pl3   1  UNL1       -0.3133
      2 C         138.4322  140.3810  163.5740 C.2     1  UNL1        0.2770
      3 N         139.9046  140.1015  163.5127 N.2     1  UNL1       -0.2204
      4 C         140.1996  139.4590  162.1897 C.3     1  UNL1        0.1537
      5 C         138.9095  139.3414  161.4335 C.3     1  UNL1        0.2350
      6 O         137.8172  139.9112  162.2891 O.2     1  UNL1       -0.4478
      7 C         141.4064  139.6426  163.0614 C.ar    1  UNL1        0.0355
      8 C         141.2648  140.2727  164.4153 C.ar    1  UNL1        0.0005
      9 C         142.4716  140.4563  165.2871 C.ar    1  UNL1       -0.0000
     10 C         143.8200  140.0098  164.8049 C.ar    1  UNL1        0.0029
     11 C         143.9616  139.3797  163.4510 C.ar    1  UNL1        0.0366
     12 C         142.7548  139.1961  162.5793 C.ar    1  UNL1        0.1364
     13 O         142.8964  138.5660  161.2254 O.3     1  UNL1       -0.4756
     14 C         141.6896  138.3824  160.3537 C.3     1  UNL1        0.2074
     15 C         140.3412  138.8289  160.8358 C.3     1  UNL1        0.0666
     16 C         138.8660  138.9807  160.6109 C.3     1  UNL1        0.0061
     17 C         139.7262  138.3591  159.5509 C.3     1  UNL1        0.0061
     18 H         138.1966  141.2944  165.5250 H       1  UNL1        0.1466
     19 H         136.7300  141.1606  164.6654 H       1  UNL1        0.1466
     20 C         142.3300  141.0864  166.6409 C.2     1  UNL1        0.0292
     21 C         143.3648  142.0567  167.1285 C.2     1  UNL1        0.2320
     22 N         143.2232  142.6868  168.4823 N.2     1  UNL1       -0.0311
     23 C         142.0467  142.3466  169.3486 C.2     1  UNL1        0.3728
     24 N         141.6427  142.8056  170.7183 N.2     1  UNL1       -0.0298
     25 C         140.3584  142.1190  171.0772 C.2     1  UNL1        0.2471
     26 C         139.9685  141.2356  169.9293 C.2     1  UNL1        0.1081
     27 CL        138.7492  140.3645  169.8616 Cl      1  UNL1       -0.0783
     28 C         141.0120  141.3763  168.8610 C.2     1  UNL1        0.0849
     29 C         141.1536  140.7462  167.5071 C.3     1  UNL1        0.0654
@<TRIPOS>BOND
     1     1     2    1
     2     2     3    2
     3     3     4    1
     4     4     5    1
     5     5     6    1
     6     4     7    1
     7     7     8   ar
     8     8     9   ar
     9     9    20    1
    10    20    21    2
    11    21    22    1
    12    22    23    2
    13    23    24    1
    14    24    25    2
    15    25    26    1
    16    26    27    1
    17    26    28    2
    18    28    29    1
    19     9    10   ar
    20    10    11   ar
    21    11    12   ar
    22    12    13    1
    23    13    14    1
    24    14    15    1
    25    15    16    1
    26    16    17    1
    27     6     2    1
    28    12     7   ar
    29    17    15    1
    30    15     4    1
    31    29    20    1
    32    28    23    1
    33     1    18    1
    34     1    19    1
@<TRIPOS>MOLECULE
*****
 29 34 0 0 0
SMALL
GASTEIGER

@<TRIPOS>ATOM
      1 N         139.9949  144.7318  164.6729 N.pl3   1  UNL1       -0.3133
      2 C         139.8544  144.1612  163.2928 C.2     1  UNL1        0.2770
      3 N         139.5372  142.7342  162.9569 N.2     1  UNL1       -0.2204
      4 C         139.4932  142.6085  161.4627 C.3     1  UNL1        0.1537
      5 C         139.7833  143.9579  160.8754 C.3     1  UNL1        0.2350
      6 O         140.0065  144.9175  162.0063 O.2     1  UNL1       -0.4478
      7 C         139.2195  141.3261  162.1912 C.ar    1  UNL1        0.0355
      8 C         139.2298  141.2986  163.6909 C.ar    1  UNL1        0.0005
      9 C         138.9560  140.0162  164.4194 C.ar    1  UNL1       -0.0000
     10 C         138.6719  138.7614  163.6481 C.ar    1  UNL1        0.0029
     11 C         138.6616  138.7890  162.1484 C.ar    1  UNL1        0.0366
     12 C         138.9354  140.0714  161.4200 C.ar    1  UNL1        0.1364
     13 O         138.9250  140.0990  159.9202 O.3     1  UNL1       -0.4756
     14 C         139.1988  141.3813  159.1918 C.3     1  UNL1        0.2074
     15 C         139.4829  142.6361  159.9630 C.3     1  UNL1        0.0666
     16 C         139.8050  144.1008  159.9877 C.3     1  UNL1        0.0061
     17 C         139.6350  143.3923  158.6766 C.3     1  UNL1        0.0061
     18 H         139.8761  144.1521  165.4597 H       1  UNL1        0.1466
     19 H         140.2058  145.6861  164.7919 H       1  UNL1        0.1466
     20 C         138.9664  139.9886  165.9191 C.2     1  UNL1        0.0292
     21 C         138.0674  139.0422  166.6580 C.2     1  UNL1        0.2320
     22 N         138.0778  139.0146  168.1577 N.2     1  UNL1       -0.0311
     23 C         138.9871  139.9335  168.9185 C.2     1  UNL1        0.3728
     24 N         139.2143  140.1305  170.3881 N.2     1  UNL1       -0.0298
     25 C         140.2537  141.1986  170.5573 C.2     1  UNL1        0.2471
     26 C         140.6689  141.6619  169.1924 C.2     1  UNL1        0.1081
     27 CL        141.6879  142.7210  168.8929 Cl      1  UNL1       -0.0783
     28 C         139.8861  140.8800  168.1796 C.2     1  UNL1        0.0849
     29 C         139.8757  140.9075  166.6798 C.3     1  UNL1        0.0654
@<TRIPOS>BOND
     1     1     2    1
     2     2     3    2
     3     3     4    1
     4     4     5    1
     5     5     6    1
     6     4     7    1
     7     7     8   ar
     8     8     9   ar
     9     9    20    1
    10    20    21    2
    11    21    22    1
    12    22    23    2
    13    23    24    1
    14    24    25    2
    15    25    26    1
    16    26    27    1
    17    26    28    2
    18    28    29    1
    19     9    10   ar
    20    10    11   ar
    21    11    12   ar
    22    12    13    1
    23    13    14    1
    24    14    15    1
    25    15    16    1
    26    16    17    1
    27     6     2    1
    28    12     7   ar
    29    17    15    1
    30    15     4    1
    31    29    20    1
    32    28    23    1
    33     1    18    1
    34     1    19    1
@<TRIPOS>MOLECULE
*****
 29 34 0 0 0
SMALL
GASTEIGER

@<TRIPOS>ATOM
      1 N         144.1677  141.8594  164.9450 N.pl3   1  UNL1       -0.3133
      2 C         143.1242  141.6504  166.0022 C.2     1  UNL1        0.2770
      3 N         141.9481  140.7242  165.9092 N.2     1  UNL1       -0.2204
      4 C         141.1708  140.8324  167.1876 C.3     1  UNL1        0.1537
      5 C         141.8665  141.8256  168.0705 C.3     1  UNL1        0.2350
      6 O         143.0738  142.3311  167.3379 O.2     1  UNL1       -0.4478
      7 C         140.5879  139.8665  166.1990 C.ar    1  UNL1        0.0355
      8 C         141.2581  139.6534  164.8741 C.ar    1  UNL1        0.0005
      9 C         140.6752  138.6875  163.8854 C.ar    1  UNL1       -0.0000
     10 C         139.4221  137.9347  164.2217 C.ar    1  UNL1        0.0029
     11 C         138.7519  138.1478  165.5467 C.ar    1  UNL1        0.0366
     12 C         139.3348  139.1137  166.5353 C.ar    1  UNL1        0.1364
     13 O         138.6646  139.3268  167.8603 O.3     1  UNL1       -0.4756
     14 C         139.2475  140.2927  168.8488 C.3     1  UNL1        0.2074
     15 C         140.5006  141.0455  168.5125 C.3     1  UNL1        0.0666
     16 C         141.5605  142.0377  168.8891 C.3     1  UNL1        0.0061
     17 C         140.4501  141.7262  169.8482 C.3     1  UNL1        0.0061
     18 H         144.1146  141.3634  164.0962 H       1  UNL1        0.1466
     19 H         144.9055  142.4924  165.0999 H       1  UNL1        0.1466
     20 C         141.3454  138.4744  162.5605 C.2     1  UNL1        0.0292
     21 C         142.7799  138.0391  162.5070 C.2     1  UNL1        0.2320
     22 N         143.4501  137.8260  161.1822 N.2     1  UNL1       -0.0311
     23 C         142.6858  138.0482  159.9107 C.2     1  UNL1        0.3728
     24 N         143.0774  137.9187  158.4685 N.2     1  UNL1       -0.0298
     25 C         141.8851  138.2740  157.6307 C.2     1  UNL1        0.2471
     26 C         140.7565  138.6231  158.5550 C.2     1  UNL1        0.1081
     27 CL        139.3755  139.0388  158.1427 Cl      1  UNL1       -0.0783
     28 C         141.2514  138.4836  159.9641 C.2     1  UNL1        0.0849
     29 C         140.5812  138.6967  161.2891 C.3     1  UNL1        0.0654
@<TRIPOS>BOND
     1     1     2    1
     2     2     3    2
     3     3     4    1
     4     4     5    1
     5     5     6    1
     6     4     7    1
     7     7     8   ar
     8     8     9   ar
     9     9    20    1
    10    20    21    2
    11    21    22    1
    12    22    23    2
    13    23    24    1
    14    24    25    2
    15    25    26    1
    16    26    27    1
    17    26    28    2
    18    28    29    1
    19     9    10   ar
    20    10    11   ar
    21    11    12   ar
    22    12    13    1
    23    13    14    1
    24    14    15    1
    25    15    16    1
    26    16    17    1
    27     6     2    1
    28    12     7   ar
    29    17    15    1
    30    15     4    1
    31    29    20    1
    32    28    23    1
    33     1    18    1
    34     1    19    1
