@<TRIPOS>MOLECULE
*****
 25 29 0 0 0
SMALL
GASTEIGER

@<TRIPOS>ATOM
      1 C         139.1699  138.7673  165.0602 C.3     1  UNL1        0.1676
      2 C         138.1294  138.7743  166.1406 C.3     1  UNL1        0.0450
      3 C         138.4495  139.3542  167.4864 C.3     1  UNL1        0.0197
      4 C         139.8101  139.9272  167.7518 C.3     1  UNL1        0.0578
      5 C         140.8506  139.9203  166.6715 C.3     1  UNL1        0.0197
      6 C         140.5305  139.3403  165.3256 C.3     1  UNL1        0.0450
      7 N         140.1301  140.5072  169.0977 N.3     1  UNL1       -0.2709
      8 C         140.8534  139.8074  170.2100 C.3     1  UNL1        0.1020
      9 C         140.9533  140.7564  171.3672 C.3     1  UNL1        0.1326
     10 C         140.4445  140.6024  169.9645 C.3     1  UNL1        0.0495
     11 C         139.7831  141.8888  169.5674 C.3     1  UNL1        0.0898
     12 C         139.8830  142.8379  170.7247 C.3     1  UNL1        0.1580
     13 O         140.6063  142.1381  171.8370 O.3     1  UNL1       -0.3533
     14 O         138.8498  138.1874  163.7144 O.3     1  UNL1       -0.4639
     15 C         137.4315  140.9849  163.0345 C.3     1  UNL1        0.0329
     16 C         138.4806  140.9120  161.9649 C.ar    1  UNL1        0.0047
     17 C         138.7234  141.9367  160.8967 C.ar    1  UNL1        0.0965
     18 N         139.8639  141.4595  160.0473 N.ar    1  UNL1       -0.2271
     19 C         140.3259  140.1399  160.5905 C.ar    1  UNL1        0.1459
     20 N         141.4147  139.2027  160.1590 N.ar    1  UNL1       -0.3213
     21 C         141.6485  137.9270  160.9127 C.ar    1  UNL1        0.1791
     22 N         140.7935  137.5886  162.0978 N.ar    1  UNL1       -0.1912
     23 C         139.7048  138.5258  162.5293 C.ar    1  UNL1        0.2287
     24 C         139.4710  139.8015  161.7756 C.ar    1  UNL1        0.0846
     25 H         141.9758  139.4248  159.3812 H       1  UNL1        0.1689
@<TRIPOS>BOND
     1    15    16    1
     2    16    17   ar
     3    17    18   ar
     4    18    19   ar
     5    19    20   ar
     6    20    21   ar
     7    21    22   ar
     8    22    23   ar
     9    23    14    1
    10     1    14    1
    11     1     2    1
    12     2     3    1
    13     3     4    1
    14     4     7    1
    15     7     8    1
    16     9     8    1
    17     9    10    1
    18    10    11    1
    19    11    12    1
    20    12    13    1
    21     4     5    1
    22     5     6    1
    23    23    24   ar
    24    24    16   ar
    25    24    19    1
    26     6     1    1
    27    11     7    1
    28    13     9    1
    29    20    25    1
@<TRIPOS>MOLECULE
*****
 25 29 0 0 0
SMALL
GASTEIGER

@<TRIPOS>ATOM
      1 C         138.9933  139.7101  165.2580 C.3     1  UNL1        0.1676
      2 C         138.9378  139.2607  166.6881 C.3     1  UNL1        0.0450
      3 C         139.5989  140.0788  167.7575 C.3     1  UNL1        0.0197
      4 C         140.3155  141.3463  167.3969 C.3     1  UNL1        0.0578
      5 C         140.3710  141.7957  165.9669 C.3     1  UNL1        0.0197
      6 C         139.7099  140.9775  164.8974 C.3     1  UNL1        0.0450
      7 N         140.9766  142.1644  168.4664 N.3     1  UNL1       -0.2709
      8 C         140.3444  143.2863  169.2356 C.3     1  UNL1        0.1020
      9 C         141.3630  143.8195  170.1990 C.3     1  UNL1        0.1326
     10 C         141.1242  142.7965  169.1281 C.3     1  UNL1        0.0495
     11 C         142.3859  142.0041  168.9544 C.3     1  UNL1        0.0898
     12 C         143.4045  142.5372  169.9178 C.3     1  UNL1        0.1580
     13 O         142.7724  143.6592  170.6870 O.3     1  UNL1       -0.3533
     14 O         138.3323  138.8920  164.1886 O.3     1  UNL1       -0.4639
     15 C         141.1503  137.3626  164.0499 C.3     1  UNL1        0.0329
     16 C         141.0145  137.8705  162.6451 C.ar    1  UNL1        0.0047
     17 C         141.9999  137.6629  161.5333 C.ar    1  UNL1        0.0965
     18 N         141.4638  138.3394  160.3066 N.ar    1  UNL1       -0.2271
     19 C         140.1472  138.9651  160.6601 C.ar    1  UNL1        0.1459
     20 N         139.1653  139.7613  159.8527 N.ar    1  UNL1       -0.3213
     21 C         137.9057  140.2677  160.4906 C.ar    1  UNL1        0.1791
     22 N         137.6281  139.9779  161.9359 N.ar    1  UNL1       -0.1912
     23 C         138.6100  139.1817  162.7433 C.ar    1  UNL1        0.2287
     24 C         139.8695  138.6753  162.1054 C.ar    1  UNL1        0.0846
     25 H         139.3476  139.9514  158.9041 H       1  UNL1        0.1689
@<TRIPOS>BOND
     1    15    16    1
     2    16    17   ar
     3    17    18   ar
     4    18    19   ar
     5    19    20   ar
     6    20    21   ar
     7    21    22   ar
     8    22    23   ar
     9    23    14    1
    10     1    14    1
    11     1     2    1
    12     2     3    1
    13     3     4    1
    14     4     7    1
    15     7     8    1
    16     9     8    1
    17     9    10    1
    18    10    11    1
    19    11    12    1
    20    12    13    1
    21     4     5    1
    22     5     6    1
    23    23    24   ar
    24    24    16   ar
    25    24    19    1
    26     6     1    1
    27    11     7    1
    28    13     9    1
    29    20    25    1
@<TRIPOS>MOLECULE
*****
 25 29 0 0 0
SMALL
GASTEIGER

@<TRIPOS>ATOM
      1 C         141.6415  138.2068  165.0175 C.3     1  UNL1        0.1676
      2 C         142.9203  138.2539  165.8001 C.3     1  UNL1        0.0450
      3 C         143.0157  139.1066  167.0305 C.3     1  UNL1        0.0197
      4 C         141.8322  139.9122  167.4783 C.3     1  UNL1        0.0578
      5 C         140.5535  139.8651  166.6957 C.3     1  UNL1        0.0197
      6 C         140.4581  139.0124  165.4652 C.3     1  UNL1        0.0450
      7 N         141.9276  140.7649  168.7087 N.3     1  UNL1       -0.2709
      8 C         142.7413  142.0167  168.8530 C.3     1  UNL1        0.1020
      9 C         142.5426  142.5409  170.2443 C.3     1  UNL1        0.1326
     10 C         142.1625  141.4432  169.2952 C.3     1  UNL1        0.0495
     11 C         141.2260  140.5153  170.0108 C.3     1  UNL1        0.0898
     12 C         141.0273  141.0395  171.4021 C.3     1  UNL1        0.1580
     13 O         141.8410  142.2914  171.5464 O.3     1  UNL1       -0.3533
     14 O         141.5462  137.3542  163.7871 O.3     1  UNL1       -0.4639
     15 C         138.6368  137.8193  162.5148 C.3     1  UNL1        0.0329
     16 C         139.5293  138.2755  161.3988 C.ar    1  UNL1        0.0047
     17 C         139.0787  138.7986  160.0672 C.ar    1  UNL1        0.0965
     18 N         140.3000  139.1350  159.2640 N.ar    1  UNL1       -0.2271
     19 C         141.5055  138.8198  160.0992 C.ar    1  UNL1        0.1459
     20 N         142.9753  138.9479  159.8288 N.ar    1  UNL1       -0.3213
     21 C         143.9687  138.5447  160.8778 C.ar    1  UNL1        0.1791
     22 N         143.4924  138.0135  162.1972 N.ar    1  UNL1       -0.1912
     23 C         142.0226  137.8854  162.4677 C.ar    1  UNL1        0.2287
     24 C         141.0291  138.2886  161.4187 C.ar    1  UNL1        0.0846
     25 H         143.2879  139.2965  158.9628 H       1  UNL1        0.1689
@<TRIPOS>BOND
     1    15    16    1
     2    16    17   ar
     3    17    18   ar
     4    18    19   ar
     5    19    20   ar
     6    20    21   ar
     7    21    22   ar
     8    22    23   ar
     9    23    14    1
    10     1    14    1
    11     1     2    1
    12     2     3    1
    13     3     4    1
    14     4     7    1
    15     7     8    1
    16     9     8    1
    17     9    10    1
    18    10    11    1
    19    11    12    1
    20    12    13    1
    21     4     5    1
    22     5     6    1
    23    23    24   ar
    24    24    16   ar
    25    24    19    1
    26     6     1    1
    27    11     7    1
    28    13     9    1
    29    20    25    1
@<TRIPOS>MOLECULE
*****
 25 29 0 0 0
SMALL
GASTEIGER

@<TRIPOS>ATOM
      1 C         143.9008  139.3645  165.0622 C.3     1  UNL1        0.1676
      2 C         143.2552  140.7117  165.1970 C.3     1  UNL1        0.0450
      3 C         142.5059  141.0625  166.4482 C.3     1  UNL1        0.0197
      4 C         142.4023  140.0660  167.5646 C.3     1  UNL1        0.0578
      5 C         143.0479  138.7188  167.4298 C.3     1  UNL1        0.0197
      6 C         143.7972  138.3680  166.1786 C.3     1  UNL1        0.0450
      7 N         141.6529  140.4168  168.8159 N.3     1  UNL1       -0.2709
      8 C         140.2443  140.0172  169.1414 C.3     1  UNL1        0.1020
      9 C         139.9015  140.5822  170.4879 C.3     1  UNL1        0.1326
     10 C         140.9840  140.4800  169.4545 C.3     1  UNL1        0.0495
     11 C         142.1809  141.2289  169.9612 C.3     1  UNL1        0.0898
     12 C         141.8381  141.7940  171.3077 C.3     1  UNL1        0.1580
     13 O         140.4294  141.3943  171.6333 O.3     1  UNL1       -0.3533
     14 O         144.6501  139.0137  163.8110 O.3     1  UNL1       -0.4639
     15 C         145.6849  141.9654  163.0924 C.3     1  UNL1        0.0329
     16 C         144.8640  141.6317  161.8821 C.ar    1  UNL1        0.0047
     17 C         144.6450  142.5196  160.6931 C.ar    1  UNL1        0.0965
     18 N         143.7637  141.7881  159.7245 N.ar    1  UNL1       -0.2271
     19 C         143.4379  140.4482  160.3149 C.ar    1  UNL1        0.1459
     20 N         142.6100  139.3037  159.8105 N.ar    1  UNL1       -0.3213
     21 C         142.4620  138.0625  160.6397 C.ar    1  UNL1        0.1791
     22 N         143.1421  137.9658  161.9731 N.ar    1  UNL1       -0.1912
     23 C         143.9701  139.1104  162.4775 C.ar    1  UNL1        0.2287
     24 C         144.1180  140.3516  161.6484 C.ar    1  UNL1        0.0846
     25 H         142.1636  139.3671  158.9353 H       1  UNL1        0.1689
@<TRIPOS>BOND
     1    15    16    1
     2    16    17   ar
     3    17    18   ar
     4    18    19   ar
     5    19    20   ar
     6    20    21   ar
     7    21    22   ar
     8    22    23   ar
     9    23    14    1
    10     1    14    1
    11     1     2    1
    12     2     3    1
    13     3     4    1
    14     4     7    1
    15     7     8    1
    16     9     8    1
    17     9    10    1
    18    10    11    1
    19    11    12    1
    20    12    13    1
    21     4     5    1
    22     5     6    1
    23    23    24   ar
    24    24    16   ar
    25    24    19    1
    26     6     1    1
    27    11     7    1
    28    13     9    1
    29    20    25    1
@<TRIPOS>MOLECULE
*****
 25 29 0 0 0
SMALL
GASTEIGER

@<TRIPOS>ATOM
      1 C         139.3945  142.1334  164.3196 C.3     1  UNL1        0.1676
      2 C         139.0585  140.8029  164.9255 C.3     1  UNL1        0.0450
      3 C         139.3817  140.5312  166.3648 C.3     1  UNL1        0.0197
      4 C         140.0409  141.5899  167.1983 C.3     1  UNL1        0.0578
      5 C         140.3770  142.9202  166.5924 C.3     1  UNL1        0.0197
      6 C         140.0538  143.1920  165.1530 C.3     1  UNL1        0.0450
      7 N         140.3641  141.3181  168.6377 N.3     1  UNL1       -0.2709
      8 C         139.7124  140.2846  169.5077 C.3     1  UNL1        0.1020
      9 C         140.3413  140.3599  170.8674 C.3     1  UNL1        0.1326
     10 C         140.3554  140.9521  169.4893 C.3     1  UNL1        0.0495
     11 C         141.3959  142.0322  169.4596 C.3     1  UNL1        0.0898
     12 C         142.0248  142.1075  170.8193 C.3     1  UNL1        0.1580
     13 O         141.3730  141.0739  171.6894 O.3     1  UNL1       -0.3533
     14 O         139.0713  142.4051  162.8803 O.3     1  UNL1       -0.4639
     15 C         141.5977  140.5576  162.1700 C.3     1  UNL1        0.0329
     16 C         141.9851  141.8566  161.5277 C.ar    1  UNL1        0.0047
     17 C         143.2520  142.1220  160.7697 C.ar    1  UNL1        0.0965
     18 N         143.2235  143.5477  160.3042 N.ar    1  UNL1       -0.2271
     19 C         141.9390  144.1633  160.7744 C.ar    1  UNL1        0.1459
     20 N         141.3675  145.5406  160.6117 N.ar    1  UNL1       -0.3213
     21 C         140.0306  145.8726  161.2052 C.ar    1  UNL1        0.1791
     22 N         139.2652  144.8275  161.9614 N.ar    1  UNL1       -0.1912
     23 C         139.8367  143.4502  162.1241 C.ar    1  UNL1        0.2287
     24 C         141.1737  143.1182  161.5306 C.ar    1  UNL1        0.0846
     25 H         141.8699  146.2265  160.1154 H       1  UNL1        0.1689
@<TRIPOS>BOND
     1    15    16    1
     2    16    17   ar
     3    17    18   ar
     4    18    19   ar
     5    19    20   ar
     6    20    21   ar
     7    21    22   ar
     8    22    23   ar
     9    23    14    1
    10     1    14    1
    11     1     2    1
    12     2     3    1
    13     3     4    1
    14     4     7    1
    15     7     8    1
    16     9     8    1
    17     9    10    1
    18    10    11    1
    19    11    12    1
    20    12    13    1
    21     4     5    1
    22     5     6    1
    23    23    24   ar
    24    24    16   ar
    25    24    19    1
    26     6     1    1
    27    11     7    1
    28    13     9    1
    29    20    25    1
@<TRIPOS>MOLECULE
*****
 25 29 0 0 0
SMALL
GASTEIGER

@<TRIPOS>ATOM
      1 C         142.0258  138.3938  164.9324 C.3     1  UNL1        0.1676
      2 C         140.7651  139.1299  165.2773 C.3     1  UNL1        0.0450
      3 C         140.6315  139.8050  166.6101 C.3     1  UNL1        0.0197
      4 C         141.7586  139.7440  167.5981 C.3     1  UNL1        0.0578
      5 C         143.0192  139.0079  167.2532 C.3     1  UNL1        0.0197
      6 C         143.1528  138.3328  165.9203 C.3     1  UNL1        0.0450
      7 N         141.6250  140.4191  168.9309 N.3     1  UNL1       -0.2709
      8 C         140.8760  139.8881  170.1171 C.3     1  UNL1        0.1020
      9 C         141.0050  140.8845  171.2308 C.3     1  UNL1        0.1326
     10 C         141.3882  140.5968  169.8093 C.3     1  UNL1        0.0495
     11 C         142.2170  141.7437  169.3115 C.3     1  UNL1        0.0898
     12 C         142.3460  142.7402  170.4252 C.3     1  UNL1        0.1580
     13 O         141.5970  142.2092  171.6114 O.3     1  UNL1       -0.3533
     14 O         142.1593  137.7187  163.5996 O.3     1  UNL1       -0.4639
     15 C         144.3004  139.9155  162.6562 C.3     1  UNL1        0.0329
     16 C         143.2180  140.0918  161.6328 C.ar    1  UNL1        0.0047
     17 C         143.2291  141.0724  160.4978 C.ar    1  UNL1        0.0965
     18 N         141.9524  140.9051  159.7283 N.ar    1  UNL1       -0.2271
     19 C         141.1524  139.8210  160.3877 C.ar    1  UNL1        0.1459
     20 N         139.8127  139.2267  160.0684 N.ar    1  UNL1       -0.3213
     21 C         139.2552  138.1297  160.9262 C.ar    1  UNL1        0.1791
     22 N         140.0375  137.6270  162.1032 N.ar    1  UNL1       -0.1912
     23 C         141.3771  138.2214  162.4225 C.ar    1  UNL1        0.2287
     24 C         141.9346  139.3184  161.5648 C.ar    1  UNL1        0.0846
     25 H         139.2993  139.5566  159.2958 H       1  UNL1        0.1689
@<TRIPOS>BOND
     1    15    16    1
     2    16    17   ar
     3    17    18   ar
     4    18    19   ar
     5    19    20   ar
     6    20    21   ar
     7    21    22   ar
     8    22    23   ar
     9    23    14    1
    10     1    14    1
    11     1     2    1
    12     2     3    1
    13     3     4    1
    14     4     7    1
    15     7     8    1
    16     9     8    1
    17     9    10    1
    18    10    11    1
    19    11    12    1
    20    12    13    1
    21     4     5    1
    22     5     6    1
    23    23    24   ar
    24    24    16   ar
    25    24    19    1
    26     6     1    1
    27    11     7    1
    28    13     9    1
    29    20    25    1
@<TRIPOS>MOLECULE
*****
 25 29 0 0 0
SMALL
GASTEIGER

@<TRIPOS>ATOM
      1 C         142.4246  141.6640  165.8496 C.3     1  UNL1        0.1676
      2 C         141.4611  142.8119  165.9137 C.3     1  UNL1        0.0450
      3 C         140.9749  143.4546  164.6486 C.3     1  UNL1        0.0197
      4 C         141.4523  142.9496  163.3194 C.3     1  UNL1        0.0578
      5 C         142.4158  141.8018  163.2552 C.3     1  UNL1        0.0197
      6 C         142.9020  141.1590  164.5203 C.3     1  UNL1        0.0450
      7 N         140.9661  143.5924  162.0542 N.3     1  UNL1       -0.2709
      8 C         141.3212  144.9673  161.5709 C.3     1  UNL1        0.1020
      9 C         140.6140  145.1977  160.2683 C.3     1  UNL1        0.1326
     10 C         140.8317  144.2055  161.3721 C.3     1  UNL1        0.0495
     11 C         140.0396  142.9730  161.0503 C.3     1  UNL1        0.0898
     12 C         139.3324  143.2034  159.7477 C.3     1  UNL1        0.1580
     13 O         139.6875  144.5784  159.2644 O.3     1  UNL1       -0.3533
     14 O         142.9108  141.0213  167.1147 O.3     1  UNL1       -0.4639
     15 C         140.0357  139.6143  167.3475 C.3     1  UNL1        0.0329
     16 C         140.0906  140.3991  168.6247 C.ar    1  UNL1        0.0047
     17 C         139.0224  140.4472  169.6766 C.ar    1  UNL1        0.0965
     18 N         139.4950  141.3513  170.7762 N.ar    1  UNL1       -0.2271
     19 C         140.8554  141.8620  170.4039 C.ar    1  UNL1        0.1459
     20 N         141.8065  142.7869  171.1038 N.ar    1  UNL1       -0.3213
     21 C         143.1256  143.1232  170.4741 C.ar    1  UNL1        0.1791
     22 N         143.4937  142.5347  169.1444 N.ar    1  UNL1       -0.1912
     23 C         142.5427  141.6098  168.4444 C.ar    1  UNL1        0.2287
     24 C         141.2235  141.2735  169.0741 C.ar    1  UNL1        0.0846
     25 H         141.5649  143.1732  171.9766 H       1  UNL1        0.1689
@<TRIPOS>BOND
     1    15    16    1
     2    16    17   ar
     3    17    18   ar
     4    18    19   ar
     5    19    20   ar
     6    20    21   ar
     7    21    22   ar
     8    22    23   ar
     9    23    14    1
    10     1    14    1
    11     1     2    1
    12     2     3    1
    13     3     4    1
    14     4     7    1
    15     7     8    1
    16     9     8    1
    17     9    10    1
    18    10    11    1
    19    11    12    1
    20    12    13    1
    21     4     5    1
    22     5     6    1
    23    23    24   ar
    24    24    16   ar
    25    24    19    1
    26     6     1    1
    27    11     7    1
    28    13     9    1
    29    20    25    1
@<TRIPOS>MOLECULE
*****
 25 29 0 0 0
SMALL
GASTEIGER

@<TRIPOS>ATOM
      1 C         140.6228  139.4656  164.5383 C.3     1  UNL1        0.1676
      2 C         139.3457  139.4494  165.3250 C.3     1  UNL1        0.0450
      3 C         139.3472  139.8659  166.7660 C.3     1  UNL1        0.0197
      4 C         140.6257  140.2985  167.4204 C.3     1  UNL1        0.0578
      5 C         141.9027  140.3148  166.6337 C.3     1  UNL1        0.0197
      6 C         141.9013  139.8983  165.1927 C.3     1  UNL1        0.0450
      7 N         140.6271  140.7150  168.8615 N.3     1  UNL1       -0.2709
      8 C         141.0553  139.8686  170.0234 C.3     1  UNL1        0.1020
      9 C         140.8934  140.6815  171.2736 C.3     1  UNL1        0.1326
     10 C         140.7288  140.7022  169.7827 C.3     1  UNL1        0.0495
     11 C         140.2005  142.0511  169.3934 C.3     1  UNL1        0.0898
     12 C         140.0387  142.8640  170.6436 C.3     1  UNL1        0.1580
     13 O         140.4669  142.0175  171.8057 O.3     1  UNL1       -0.3533
     14 O         140.6213  139.0492  163.0973 O.3     1  UNL1       -0.4639
     15 C         140.5697  142.1464  162.2581 C.3     1  UNL1        0.0329
     16 C         141.8417  141.6815  161.6133 C.ar    1  UNL1        0.0047
     17 C         142.7800  142.5266  160.8038 C.ar    1  UNL1        0.0965
     18 N         143.9169  141.6572  160.3550 N.ar    1  UNL1       -0.2271
     19 C         143.6814  140.2747  160.8873 C.ar    1  UNL1        0.1459
     20 N         144.4691  139.0041  160.7643 N.ar    1  UNL1       -0.3213
     21 C         143.9742  137.7486  161.4189 C.ar    1  UNL1        0.1791
     22 N         142.6916  137.7636  162.1966 N.ar    1  UNL1       -0.1912
     23 C         141.9039  139.0342  162.3196 C.ar    1  UNL1        0.2287
     24 C         142.3988  140.2897  161.6650 C.ar    1  UNL1        0.0846
     25 H         145.3109  138.9943  160.2539 H       1  UNL1        0.1689
@<TRIPOS>BOND
     1    15    16    1
     2    16    17   ar
     3    17    18   ar
     4    18    19   ar
     5    19    20   ar
     6    20    21   ar
     7    21    22   ar
     8    22    23   ar
     9    23    14    1
    10     1    14    1
    11     1     2    1
    12     2     3    1
    13     3     4    1
    14     4     7    1
    15     7     8    1
    16     9     8    1
    17     9    10    1
    18    10    11    1
    19    11    12    1
    20    12    13    1
    21     4     5    1
    22     5     6    1
    23    23    24   ar
    24    24    16   ar
    25    24    19    1
    26     6     1    1
    27    11     7    1
    28    13     9    1
    29    20    25    1
@<TRIPOS>MOLECULE
*****
 25 29 0 0 0
SMALL
GASTEIGER

@<TRIPOS>ATOM
      1 C         142.4534  142.1183  164.4526 C.3     1  UNL1        0.1676
      2 C         141.0007  141.9669  164.7944 C.3     1  UNL1        0.0450
      3 C         140.5560  142.0337  166.2254 C.3     1  UNL1        0.0197
      4 C         141.5640  142.2518  167.3146 C.3     1  UNL1        0.0578
      5 C         143.0166  142.4031  166.9729 C.3     1  UNL1        0.0197
      6 C         143.4614  142.3364  165.5418 C.3     1  UNL1        0.0450
      7 N         141.1193  142.3186  168.7457 N.3     1  UNL1       -0.2709
      8 C         140.3320  143.4304  169.3734 C.3     1  UNL1        0.1020
      9 C         140.1099  143.0842  170.8158 C.3     1  UNL1        0.1326
     10 C         140.7338  142.6110  169.5363 C.3     1  UNL1        0.0495
     11 C         141.3837  141.2851  169.8002 C.3     1  UNL1        0.0898
     12 C         141.1616  140.9388  171.2427 C.3     1  UNL1        0.1580
     13 O         140.3744  142.0508  171.8704 O.3     1  UNL1       -0.3533
     14 O         142.8981  142.0515  163.0216 O.3     1  UNL1       -0.4639
     15 C         142.2101  145.1774  163.2575 C.3     1  UNL1        0.0329
     16 C         141.3086  144.7550  162.1354 C.ar    1  UNL1        0.0047
     17 C         140.3641  145.6433  161.3812 C.ar    1  UNL1        0.0965
     18 N         139.6652  144.8074  160.3502 N.ar    1  UNL1       -0.2271
     19 C         140.1778  143.4026  160.4672 C.ar    1  UNL1        0.1459
     20 N         139.8509  142.1487  159.7117 N.ar    1  UNL1       -0.3213
     21 C         140.5397  140.8624  160.0594 C.ar    1  UNL1        0.1791
     22 N         141.5555  140.8300  161.1627 N.ar    1  UNL1       -0.1912
     23 C         141.8823  142.0839  161.9183 C.ar    1  UNL1        0.2287
     24 C         141.1935  143.3702  161.5705 C.ar    1  UNL1        0.0846
     25 H         139.1843  142.1700  158.9875 H       1  UNL1        0.1689
@<TRIPOS>BOND
     1    15    16    1
     2    16    17   ar
     3    17    18   ar
     4    18    19   ar
     5    19    20   ar
     6    20    21   ar
     7    21    22   ar
     8    22    23   ar
     9    23    14    1
    10     1    14    1
    11     1     2    1
    12     2     3    1
    13     3     4    1
    14     4     7    1
    15     7     8    1
    16     9     8    1
    17     9    10    1
    18    10    11    1
    19    11    12    1
    20    12    13    1
    21     4     5    1
    22     5     6    1
    23    23    24   ar
    24    24    16   ar
    25    24    19    1
    26     6     1    1
    27    11     7    1
    28    13     9    1
    29    20    25    1
