@<TRIPOS>MOLECULE
*****
 34 36 0 0 0
SMALL
GASTEIGER

@<TRIPOS>ATOM
      1 C         142.0578  141.5992  164.1800 C.2     1  UNL1        0.2491
      2 O         140.7423  142.2087  163.7953 O.2     1  UNL1       -0.2699
      3 N         143.1290  141.4133  163.1466 N.am    1  UNL1       -0.2777
      4 C         142.9324  141.7705  168.0472 C.ar    1  UNL1        0.1723
      5 C         142.6882  142.1942  166.6292 C.ar    1  UNL1        0.0446
      6 C         142.3021  141.1755  165.5980 C.ar    1  UNL1        0.0568
      7 C         142.1602  139.7332  165.9849 C.ar    1  UNL1        0.0078
      8 C         142.4045  139.3096  167.4029 C.ar    1  UNL1        0.0402
      9 C         142.7906  140.3283  168.4341 C.ar    1  UNL1        0.1724
     10 O         143.0349  139.9046  169.8522 O.3     1  UNL1       -0.4684
     11 C         142.7170  138.5029  170.2815 C.3     1  UNL1        0.2526
     12 O         143.3185  142.7892  169.0784 O.3     1  UNL1       -0.4723
     13 C         142.3312  143.2051  170.1282 C.3     1  UNL1        0.2082
     14 C         140.8937  143.4251  169.7606 C.3     1  UNL1        0.0794
     15 C         139.8040  142.8711  170.6301 C.3     1  UNL1        0.1461
     16 C         139.3096  140.4972  169.6972 C.3     1  UNL1        0.1741
     17 O         139.6922  141.3901  170.8402 O.3     1  UNL1       -0.3510
     18 C         144.4445  140.8037  163.5313 C.3     1  UNL1        0.0757
     19 C         145.5884  141.6841  163.9391 C.3     1  UNL1        0.0215
     20 C         144.6160  139.3137  163.5081 C.3     1  UNL1        0.0215
     21 C         142.8848  141.8369  161.7285 C.3     1  UNL1        0.0950
     22 C         142.8649  140.8129  160.6327 C.3     1  UNL1        0.0373
     23 C         143.9792  140.5310  159.6690 C.3     1  UNL1        0.0703
     24 N         143.5302  139.4348  158.7488 N.3     1  UNL1       -0.2974
     25 C         142.1383  139.0392  159.1438 C.3     1  UNL1        0.0690
     26 C         141.7271  139.8909  160.3081 C.3     1  UNL1        0.0231
     27 H         144.1553  138.6333  158.8342 H       1  UNL1        0.1232
     28 C         140.4094  139.8311  161.0224 C.3     1  UNL1        0.0278
     29 C         140.2608  138.9857  162.2524 C.ar    1  UNL1       -0.0221
     30 C         141.2859  137.9380  162.5709 C.ar    1  UNL1       -0.0043
     31 C         141.1372  137.0927  163.8010 C.ar    1  UNL1       -0.0003
     32 C         139.9634  137.2950  164.7128 C.ar    1  UNL1       -0.0000
     33 C         138.9382  138.3427  164.3944 C.ar    1  UNL1       -0.0003
     34 C         139.0870  139.1881  163.1642 C.ar    1  UNL1       -0.0043
@<TRIPOS>BOND
     1    16    17    1
     2    17    15    1
     3    15    14    1
     4    14    13    1
     5    13    12    1
     6    12     4    1
     7     4     5   ar
     8     5     6   ar
     9     6     1    1
    10     1     2    2
    11     1     3   am
    12     3    21    1
    13    22    21    1
    14    22    23    1
    15    23    24    1
    16    24    25    1
    17    25    26    1
    18    26    28    1
    19    28    29    1
    20    29    30   ar
    21    30    31   ar
    22    31    32   ar
    23    32    33   ar
    24    33    34   ar
    25     3    18    1
    26    18    19    1
    27    18    20    1
    28     6     7   ar
    29     7     8   ar
    30     8     9   ar
    31     9    10    1
    32    10    11    1
    33     9     4   ar
    34    26    22    1
    35    34    29   ar
    36    24    27    1
@<TRIPOS>MOLECULE
*****
 34 36 0 0 0
SMALL
GASTEIGER

@<TRIPOS>ATOM
      1 C         141.0377  142.8487  166.2837 C.2     1  UNL1        0.2491
      2 O         140.3623  142.9788  167.6167 O.2     1  UNL1       -0.2699
      3 N         142.5253  142.6709  166.2108 N.am    1  UNL1       -0.2777
      4 C         139.1888  144.2526  163.0648 C.ar    1  UNL1        0.1723
      5 C         140.0011  144.2048  164.3249 C.ar    1  UNL1        0.0446
      6 C         140.2253  142.8965  165.0236 C.ar    1  UNL1        0.0568
      7 C         139.6373  141.6360  164.4621 C.ar    1  UNL1        0.0078
      8 C         138.8250  141.6838  163.2020 C.ar    1  UNL1        0.0402
      9 C         138.6008  142.9921  162.5034 C.ar    1  UNL1        0.1724
     10 O         137.7885  143.0399  161.2432 O.3     1  UNL1       -0.4684
     11 C         138.2279  142.2629  160.0377 C.3     1  UNL1        0.2526
     12 O         138.9646  145.5609  162.3662 O.3     1  UNL1       -0.4723
     13 C         140.0157  146.1107  161.4481 C.3     1  UNL1        0.2082
     14 C         140.2032  145.5184  160.0828 C.3     1  UNL1        0.0794
     15 C         141.1867  144.4045  159.8771 C.3     1  UNL1        0.1461
     16 C         143.3339  143.1432  160.6175 C.3     1  UNL1        0.1741
     17 O         142.4245  144.3315  160.7212 O.3     1  UNL1       -0.3510
     18 C         143.2006  142.5408  164.8776 C.3     1  UNL1        0.0757
     19 C         143.2819  141.2023  164.2055 C.3     1  UNL1        0.0215
     20 C         143.7946  143.7492  164.2167 C.3     1  UNL1        0.0215
     21 C         143.3376  142.6231  167.4708 C.3     1  UNL1        0.0950
     22 C         142.9565  141.6804  168.5735 C.3     1  UNL1        0.0373
     23 C         142.9030  142.0097  170.0360 C.3     1  UNL1        0.0703
     24 N         142.4755  140.7757  170.7737 N.3     1  UNL1       -0.2974
     25 C         142.2648  139.6835  169.7673 C.3     1  UNL1        0.0690
     26 C         142.5622  140.2427  168.4075 C.3     1  UNL1        0.0231
     27 H         141.6061  140.9562  171.2757 H       1  UNL1        0.1232
     28 C         142.4796  139.4953  167.1096 C.3     1  UNL1        0.0278
     29 C         141.1429  139.1032  166.5536 C.ar    1  UNL1       -0.0221
     30 C         139.8866  139.4991  167.2713 C.ar    1  UNL1       -0.0043
     31 C         138.5498  139.1069  166.7152 C.ar    1  UNL1       -0.0003
     32 C         138.4692  138.3188  165.4415 C.ar    1  UNL1       -0.0000
     33 C         139.7255  137.9228  164.7238 C.ar    1  UNL1       -0.0003
     34 C         141.0622  138.3150  165.2798 C.ar    1  UNL1       -0.0043
@<TRIPOS>BOND
     1    16    17    1
     2    17    15    1
     3    15    14    1
     4    14    13    1
     5    13    12    1
     6    12     4    1
     7     4     5   ar
     8     5     6   ar
     9     6     1    1
    10     1     2    2
    11     1     3   am
    12     3    21    1
    13    22    21    1
    14    22    23    1
    15    23    24    1
    16    24    25    1
    17    25    26    1
    18    26    28    1
    19    28    29    1
    20    29    30   ar
    21    30    31   ar
    22    31    32   ar
    23    32    33   ar
    24    33    34   ar
    25     3    18    1
    26    18    19    1
    27    18    20    1
    28     6     7   ar
    29     7     8   ar
    30     8     9   ar
    31     9    10    1
    32    10    11    1
    33     9     4   ar
    34    26    22    1
    35    34    29   ar
    36    24    27    1
@<TRIPOS>MOLECULE
*****
 34 36 0 0 0
SMALL
GASTEIGER

@<TRIPOS>ATOM
      1 C         141.1262  142.8901  166.2075 C.2     1  UNL1        0.2491
      2 O         140.4697  143.0942  167.5407 O.2     1  UNL1       -0.2699
      3 N         142.6035  142.6421  166.1291 N.am    1  UNL1       -0.2777
      4 C         138.6189  141.8105  163.3269 C.ar    1  UNL1        0.1723
      5 C         139.4396  141.7667  164.5816 C.ar    1  UNL1        0.0446
      6 C         140.3054  142.9340  164.9527 C.ar    1  UNL1        0.0568
      7 C         140.3504  144.1452  164.0691 C.ar    1  UNL1        0.0078
      8 C         139.5297  144.1891  162.8143 C.ar    1  UNL1        0.0402
      9 C         138.6639  143.0217  162.4432 C.ar    1  UNL1        0.1724
     10 O         137.8431  143.0656  161.1884 O.3     1  UNL1       -0.4684
     11 C         138.4358  142.6093  159.8883 C.3     1  UNL1        0.2526
     12 O         137.7531  140.6432  162.9558 O.3     1  UNL1       -0.4723
     13 C         138.2429  139.6321  161.9619 C.3     1  UNL1        0.2082
     14 C         139.7066  139.5371  161.6480 C.3     1  UNL1        0.0794
     15 C         140.2717  138.2674  161.0835 C.3     1  UNL1        0.1461
     16 C         142.6621  137.9275  162.0430 C.3     1  UNL1        0.1741
     17 O         141.2461  137.4579  161.8869 O.3     1  UNL1       -0.3510
     18 C         143.2600  142.4380  164.7959 C.3     1  UNL1        0.0757
     19 C         144.0344  143.5555  164.1623 C.3     1  UNL1        0.0215
     20 C         143.1419  141.1164  164.0962 C.3     1  UNL1        0.0215
     21 C         143.4242  142.5982  167.3838 C.3     1  UNL1        0.0950
     22 C         143.0506  141.6589  168.4920 C.3     1  UNL1        0.0373
     23 C         143.0837  141.9687  169.9592 C.3     1  UNL1        0.0703
     24 N         142.6318  140.7461  170.7015 N.3     1  UNL1       -0.2974
     25 C         142.3194  139.6806  169.6930 C.3     1  UNL1        0.0690
     26 C         142.5782  140.2447  168.3275 C.3     1  UNL1        0.0231
     27 H         141.7975  140.9613  171.2475 H       1  UNL1        0.1232
     28 C         142.3965  139.5216  167.0259 C.3     1  UNL1        0.0278
     29 C         141.0219  139.1308  166.5705 C.ar    1  UNL1       -0.0221
     30 C         140.8496  138.2975  165.3352 C.ar    1  UNL1       -0.0043
     31 C         139.4749  137.9067  164.8798 C.ar    1  UNL1       -0.0003
     32 C         138.2724  138.3491  165.6597 C.ar    1  UNL1       -0.0000
     33 C         138.4446  139.1824  166.8951 C.ar    1  UNL1       -0.0003
     34 C         139.8193  139.5732  167.3504 C.ar    1  UNL1       -0.0043
@<TRIPOS>BOND
     1    16    17    1
     2    17    15    1
     3    15    14    1
     4    14    13    1
     5    13    12    1
     6    12     4    1
     7     4     5   ar
     8     5     6   ar
     9     6     1    1
    10     1     2    2
    11     1     3   am
    12     3    21    1
    13    22    21    1
    14    22    23    1
    15    23    24    1
    16    24    25    1
    17    25    26    1
    18    26    28    1
    19    28    29    1
    20    29    30   ar
    21    30    31   ar
    22    31    32   ar
    23    32    33   ar
    24    33    34   ar
    25     3    18    1
    26    18    19    1
    27    18    20    1
    28     6     7   ar
    29     7     8   ar
    30     8     9   ar
    31     9    10    1
    32    10    11    1
    33     9     4   ar
    34    26    22    1
    35    34    29   ar
    36    24    27    1
@<TRIPOS>MOLECULE
*****
 34 36 0 0 0
SMALL
GASTEIGER

@<TRIPOS>ATOM
      1 C         141.6576  139.1723  166.2723 C.2     1  UNL1        0.2491
      2 O         143.0118  138.9922  166.8916 O.2     1  UNL1       -0.2699
      3 N         140.4938  139.5891  167.1219 N.am    1  UNL1       -0.2777
      4 C         141.7041  139.7419  162.3450 C.ar    1  UNL1        0.1723
      5 C         141.8946  139.9786  163.8139 C.ar    1  UNL1        0.0446
      6 C         141.4670  138.9355  164.8034 C.ar    1  UNL1        0.0568
      7 C         140.8490  137.6556  164.3240 C.ar    1  UNL1        0.0078
      8 C         140.6585  137.4189  162.8551 C.ar    1  UNL1        0.0402
      9 C         141.0861  138.4620  161.8656 C.ar    1  UNL1        0.1724
     10 O         140.8955  138.2252  160.3967 O.3     1  UNL1       -0.4684
     11 C         139.5862  138.5612  159.7465 C.3     1  UNL1        0.2526
     12 O         142.1317  140.7850  161.3556 O.3     1  UNL1       -0.4723
     13 C         141.2597  141.9783  161.0998 C.3     1  UNL1        0.2082
     14 C         139.8007  141.9289  161.4448 C.3     1  UNL1        0.0794
     15 C         139.0747  143.1880  161.8161 C.3     1  UNL1        0.1461
     16 C         140.1820  145.5080  161.4400 C.3     1  UNL1        0.1741
     17 O         139.2476  144.4257  160.9866 O.3     1  UNL1       -0.3510
     18 C         139.1395  139.7692  166.5026 C.3     1  UNL1        0.0757
     19 C         138.8542  140.9777  165.6612 C.3     1  UNL1        0.0215
     20 C         138.0705  138.7406  166.7247 C.3     1  UNL1        0.0215
     21 C         140.6842  139.8259  168.5908 C.3     1  UNL1        0.0950
     22 C         140.6013  141.2181  169.1430 C.3     1  UNL1        0.0373
     23 C         139.5133  141.7529  170.0263 C.3     1  UNL1        0.0703
     24 N         139.8313  143.1852  170.3381 N.3     1  UNL1       -0.2974
     25 C         141.1160  143.5357  169.6475 C.3     1  UNL1        0.0690
     26 C         141.5918  142.3199  168.9089 C.3     1  UNL1        0.0231
     27 H         139.9361  143.3052  171.3456 H       1  UNL1        0.1232
     28 C         142.8392  142.2231  168.0814 C.3     1  UNL1        0.0278
     29 C         142.8452  142.7338  166.6711 C.ar    1  UNL1       -0.0221
     30 C         141.5493  142.9807  165.9572 C.ar    1  UNL1       -0.0043
     31 C         141.5555  143.4914  164.5469 C.ar    1  UNL1       -0.0003
     32 C         142.8575  143.7552  163.8504 C.ar    1  UNL1       -0.0000
     33 C         144.1534  143.5083  164.5642 C.ar    1  UNL1       -0.0003
     34 C         144.1473  142.9976  165.9746 C.ar    1  UNL1       -0.0043
@<TRIPOS>BOND
     1    16    17    1
     2    17    15    1
     3    15    14    1
     4    14    13    1
     5    13    12    1
     6    12     4    1
     7     4     5   ar
     8     5     6   ar
     9     6     1    1
    10     1     2    2
    11     1     3   am
    12     3    21    1
    13    22    21    1
    14    22    23    1
    15    23    24    1
    16    24    25    1
    17    25    26    1
    18    26    28    1
    19    28    29    1
    20    29    30   ar
    21    30    31   ar
    22    31    32   ar
    23    32    33   ar
    24    33    34   ar
    25     3    18    1
    26    18    19    1
    27    18    20    1
    28     6     7   ar
    29     7     8   ar
    30     8     9   ar
    31     9    10    1
    32    10    11    1
    33     9     4   ar
    34    26    22    1
    35    34    29   ar
    36    24    27    1
@<TRIPOS>MOLECULE
*****
 34 36 0 0 0
SMALL
GASTEIGER

@<TRIPOS>ATOM
      1 C         142.9799  139.6373  165.6275 C.2     1  UNL1        0.2491
      2 O         142.9639  138.1737  165.9556 O.2     1  UNL1       -0.2699
      3 N         143.5985  140.1119  164.3461 N.am    1  UNL1       -0.2777
      4 C         140.6890  142.5401  167.0682 C.ar    1  UNL1        0.1723
      5 C         141.2918  141.5511  166.1151 C.ar    1  UNL1        0.0446
      6 C         142.3771  140.6263  166.5807 C.ar    1  UNL1        0.0568
      7 C         142.8596  140.6905  167.9995 C.ar    1  UNL1        0.0078
      8 C         142.2568  141.6794  168.9526 C.ar    1  UNL1        0.0402
      9 C         141.1715  142.6042  168.4870 C.ar    1  UNL1        0.1724
     10 O         140.5687  143.5932  169.4402 O.3     1  UNL1       -0.4684
     11 C         139.7941  143.1111  170.6308 C.3     1  UNL1        0.2526
     12 O         139.6036  143.4649  166.6026 O.3     1  UNL1       -0.4723
     13 C         139.4716  143.7924  165.1448 C.3     1  UNL1        0.2082
     14 C         138.1187  144.0637  164.5566 C.3     1  UNL1        0.0794
     15 C         137.9877  144.4007  163.1007 C.3     1  UNL1        0.1461
     16 C         139.7605  145.9530  162.0066 C.3     1  UNL1        0.1741
     17 O         139.2161  144.5782  162.2585 O.3     1  UNL1       -0.3510
     18 C         143.6145  141.5755  164.0179 C.3     1  UNL1        0.0757
     19 C         142.5783  142.1490  163.0974 C.3     1  UNL1        0.0215
     20 C         144.6665  142.4656  164.6104 C.3     1  UNL1        0.0215
     21 C         144.2013  139.1230  163.3929 C.3     1  UNL1        0.0950
     22 C         143.5386  138.8519  162.0748 C.3     1  UNL1        0.0373
     23 C         144.0529  139.2654  160.7278 C.3     1  UNL1        0.0703
     24 N         143.0774  138.7889  159.6927 N.3     1  UNL1       -0.2974
     25 C         141.9602  138.0808  160.4001 C.3     1  UNL1        0.0690
     26 C         142.2452  138.1198  161.8722 C.3     1  UNL1        0.0231
     27 H         143.5412  138.1476  159.0493 H       1  UNL1        0.1232
     28 C         141.3874  137.5301  162.9523 C.3     1  UNL1        0.0278
     29 C         140.3145  138.3587  163.5942 C.ar    1  UNL1       -0.0221
     30 C         139.6602  137.8890  164.8596 C.ar    1  UNL1       -0.0043
     31 C         138.5873  138.7177  165.5015 C.ar    1  UNL1       -0.0003
     32 C         138.1686  140.0161  164.8781 C.ar    1  UNL1       -0.0000
     33 C         138.8228  140.4859  163.6127 C.ar    1  UNL1       -0.0003
     34 C         139.8957  139.6573  162.9708 C.ar    1  UNL1       -0.0043
@<TRIPOS>BOND
     1    16    17    1
     2    17    15    1
     3    15    14    1
     4    14    13    1
     5    13    12    1
     6    12     4    1
     7     4     5   ar
     8     5     6   ar
     9     6     1    1
    10     1     2    2
    11     1     3   am
    12     3    21    1
    13    22    21    1
    14    22    23    1
    15    23    24    1
    16    24    25    1
    17    25    26    1
    18    26    28    1
    19    28    29    1
    20    29    30   ar
    21    30    31   ar
    22    31    32   ar
    23    32    33   ar
    24    33    34   ar
    25     3    18    1
    26    18    19    1
    27    18    20    1
    28     6     7   ar
    29     7     8   ar
    30     8     9   ar
    31     9    10    1
    32    10    11    1
    33     9     4   ar
    34    26    22    1
    35    34    29   ar
    36    24    27    1
@<TRIPOS>MOLECULE
*****
 34 36 0 0 0
SMALL
GASTEIGER

@<TRIPOS>ATOM
      1 C         139.5895  139.6984  165.8937 C.2     1  UNL1        0.2491
      2 O         138.1407  139.6948  166.2818 O.2     1  UNL1       -0.2699
      3 N         140.0313  139.0071  164.6379 N.am    1  UNL1       -0.2777
      4 C         142.2657  140.3461  168.7518 C.ar    1  UNL1        0.1723
      5 C         141.2586  139.6512  167.8842 C.ar    1  UNL1        0.0446
      6 C         140.5967  140.3934  166.7613 C.ar    1  UNL1        0.0568
      7 C         140.9420  141.8306  166.5059 C.ar    1  UNL1        0.0078
      8 C         141.9491  142.5255  167.3735 C.ar    1  UNL1        0.0402
      9 C         142.6110  141.7833  168.4964 C.ar    1  UNL1        0.1724
     10 O         143.6181  142.4783  169.3640 O.3     1  UNL1       -0.4684
     11 C         143.1755  143.1748  170.6166 C.3     1  UNL1        0.2526
     12 O         142.9275  139.6038  169.8747 O.3     1  UNL1       -0.4723
     13 C         143.1429  138.1230  169.7708 C.3     1  UNL1        0.2082
     14 C         143.7574  137.3724  170.9149 C.3     1  UNL1        0.0794
     15 C         144.4718  136.0773  170.6648 C.3     1  UNL1        0.1461
     16 C         146.5418  136.7911  172.0632 C.3     1  UNL1        0.1741
     17 O         145.9340  135.9550  170.9762 O.3     1  UNL1       -0.3510
     18 C         141.4803  139.0108  164.2498 C.3     1  UNL1        0.0757
     19 C         142.4050  137.9624  164.7934 C.3     1  UNL1        0.0215
     20 C         142.0044  140.0630  163.3180 C.3     1  UNL1        0.0215
     21 C         139.0242  138.3122  163.7703 C.3     1  UNL1        0.0950
     22 C         138.7155  138.8472  162.4034 C.3     1  UNL1        0.0373
     23 C         139.0887  138.2049  161.1002 C.3     1  UNL1        0.0703
     24 N         138.5832  139.0792  159.9911 N.3     1  UNL1       -0.2974
     25 C         137.8977  140.2618  160.6088 C.3     1  UNL1        0.0690
     26 C         137.9795  140.1184  162.0997 C.3     1  UNL1        0.0231
     27 H         137.9227  138.5588  159.4137 H       1  UNL1        0.1232
     28 C         137.4229  141.0777  163.1095 C.3     1  UNL1        0.0278
     29 C         138.2305  142.2663  163.5396 C.ar    1  UNL1       -0.0221
     30 C         137.7077  143.1821  164.6064 C.ar    1  UNL1       -0.0043
     31 C         138.5153  144.3706  165.0364 C.ar    1  UNL1       -0.0003
     32 C         139.8458  144.6434  164.3998 C.ar    1  UNL1       -0.0000
     33 C         140.3687  143.7277  163.3330 C.ar    1  UNL1       -0.0003
     34 C         139.5610  142.5391  162.9029 C.ar    1  UNL1       -0.0043
@<TRIPOS>BOND
     1    16    17    1
     2    17    15    1
     3    15    14    1
     4    14    13    1
     5    13    12    1
     6    12     4    1
     7     4     5   ar
     8     5     6   ar
     9     6     1    1
    10     1     2    2
    11     1     3   am
    12     3    21    1
    13    22    21    1
    14    22    23    1
    15    23    24    1
    16    24    25    1
    17    25    26    1
    18    26    28    1
    19    28    29    1
    20    29    30   ar
    21    30    31   ar
    22    31    32   ar
    23    32    33   ar
    24    33    34   ar
    25     3    18    1
    26    18    19    1
    27    18    20    1
    28     6     7   ar
    29     7     8   ar
    30     8     9   ar
    31     9    10    1
    32    10    11    1
    33     9     4   ar
    34    26    22    1
    35    34    29   ar
    36    24    27    1
@<TRIPOS>MOLECULE
*****
 34 36 0 0 0
SMALL
GASTEIGER

@<TRIPOS>ATOM
      1 C         139.2986  139.7367  165.3809 C.2     1  UNL1        0.2491
      2 O         137.9125  139.5026  164.8576 O.2     1  UNL1       -0.2699
      3 N         140.4881  139.3601  164.5482 N.am    1  UNL1       -0.2777
      4 C         139.0853  140.3103  169.3020 C.ar    1  UNL1        0.1723
      5 C         138.8887  139.6997  167.9462 C.ar    1  UNL1        0.0446
      6 C         139.4953  140.3474  166.7368 C.ar    1  UNL1        0.0568
      7 C         140.2986  141.6056  166.8833 C.ar    1  UNL1        0.0078
      8 C         140.4953  142.2162  168.2392 C.ar    1  UNL1        0.0402
      9 C         139.8886  141.5686  169.4486 C.ar    1  UNL1        0.1724
     10 O         140.0853  142.1792  170.8045 O.3     1  UNL1       -0.4684
     11 C         141.3821  141.9860  171.5331 C.3     1  UNL1        0.2526
     12 O         138.4786  139.6627  170.5114 O.3     1  UNL1       -0.4723
     13 C         137.0769  139.1318  170.4542 C.3     1  UNL1        0.2082
     14 C         136.4272  138.5945  171.6948 C.3     1  UNL1        0.0794
     15 C         136.8229  137.2486  172.2259 C.3     1  UNL1        0.1461
     16 C         135.0253  136.3757  173.8863 C.3     1  UNL1        0.1741
     17 O         135.7680  136.2461  172.5896 O.3     1  UNL1       -0.3510
     18 C         141.8743  139.5942  165.0715 C.3     1  UNL1        0.0757
     19 C         142.4608  138.6584  166.0866 C.3     1  UNL1        0.0215
     20 C         142.6740  140.7641  164.5798 C.3     1  UNL1        0.0215
     21 C         140.2915  138.7495  163.1924 C.3     1  UNL1        0.0950
     22 C         139.1735  139.2230  162.3115 C.3     1  UNL1        0.0373
     23 C         138.0405  138.3850  161.7978 C.3     1  UNL1        0.0703
     24 N         137.1589  139.2617  160.9585 N.3     1  UNL1       -0.2974
     25 C         137.7472  140.6415  160.9536 C.3     1  UNL1        0.0690
     26 C         138.9922  140.6176  161.7898 C.3     1  UNL1        0.0231
     27 H         136.2191  139.2874  161.3540 H       1  UNL1        0.1232
     28 C         139.8971  141.7836  162.0573 C.3     1  UNL1        0.0278
     29 C         139.5432  142.7788  163.1222 C.ar    1  UNL1       -0.0221
     30 C         140.5930  143.7036  163.6633 C.ar    1  UNL1       -0.0043
     31 C         140.2390  144.6989  164.7283 C.ar    1  UNL1       -0.0003
     32 C         138.8353  144.7693  165.2522 C.ar    1  UNL1       -0.0000
     33 C         137.7855  143.8445  164.7112 C.ar    1  UNL1       -0.0003
     34 C         138.1394  142.8493  163.6463 C.ar    1  UNL1       -0.0043
@<TRIPOS>BOND
     1    16    17    1
     2    17    15    1
     3    15    14    1
     4    14    13    1
     5    13    12    1
     6    12     4    1
     7     4     5   ar
     8     5     6   ar
     9     6     1    1
    10     1     2    2
    11     1     3   am
    12     3    21    1
    13    22    21    1
    14    22    23    1
    15    23    24    1
    16    24    25    1
    17    25    26    1
    18    26    28    1
    19    28    29    1
    20    29    30   ar
    21    30    31   ar
    22    31    32   ar
    23    32    33   ar
    24    33    34   ar
    25     3    18    1
    26    18    19    1
    27    18    20    1
    28     6     7   ar
    29     7     8   ar
    30     8     9   ar
    31     9    10    1
    32    10    11    1
    33     9     4   ar
    34    26    22    1
    35    34    29   ar
    36    24    27    1
@<TRIPOS>MOLECULE
*****
 34 36 0 0 0
SMALL
GASTEIGER

@<TRIPOS>ATOM
      1 C         143.7183  139.5599  164.5040 C.2     1  UNL1        0.2491
      2 O         145.1684  139.9267  164.3916 O.2     1  UNL1       -0.2699
      3 N         143.0546  138.7807  163.4075 N.am    1  UNL1       -0.2777
      4 C         141.3098  141.6299  166.8840 C.ar    1  UNL1        0.1723
      5 C         142.0962  141.2175  165.6751 C.ar    1  UNL1        0.0446
      6 C         142.9319  139.9724  165.7129 C.ar    1  UNL1        0.0568
      7 C         142.9811  139.1397  166.9596 C.ar    1  UNL1        0.0078
      8 C         142.1947  139.5522  168.1684 C.ar    1  UNL1        0.0402
      9 C         141.3590  140.7973  168.1306 C.ar    1  UNL1        0.1724
     10 O         140.5726  141.2097  169.3396 O.3     1  UNL1       -0.4684
     11 C         139.2906  140.5072  169.6759 C.3     1  UNL1        0.2526
     12 O         140.4742  142.8750  166.8462 O.3     1  UNL1       -0.4723
     13 C         139.7498  143.2542  165.5886 C.3     1  UNL1        0.2082
     14 C         138.7306  142.3239  165.0007 C.3     1  UNL1        0.0794
     15 C         137.6794  142.8538  164.0709 C.3     1  UNL1        0.1461
     16 C         138.0455  142.1207  161.6055 C.3     1  UNL1        0.1741
     17 O         137.2566  142.0471  162.8791 O.3     1  UNL1       -0.3510
     18 C         141.6044  138.4140  163.5199 C.3     1  UNL1        0.0757
     19 C         140.5569  139.3051  162.9212 C.3     1  UNL1        0.0215
     20 C         141.2019  137.1561  164.2310 C.3     1  UNL1        0.0215
     21 C         143.8410  138.3683  162.1986 C.3     1  UNL1        0.0950
     22 C         143.5738  139.0171  160.8728 C.3     1  UNL1        0.0373
     23 C         142.9394  138.3613  159.6822 C.3     1  UNL1        0.0703
     24 N         142.8675  139.3745  158.5784 N.3     1  UNL1       -0.2974
     25 C         143.4575  140.6565  159.0868 C.3     1  UNL1        0.0690
     26 C         143.8940  140.4356  160.5048 C.3     1  UNL1        0.0231
     27 H         141.8953  139.5239  158.3085 H       1  UNL1        0.1232
     28 C         144.5376  141.4543  161.3981 C.3     1  UNL1        0.0278
     29 C         143.7175  142.5682  161.9782 C.ar    1  UNL1       -0.0221
     30 C         144.3951  143.7527  162.6009 C.ar    1  UNL1       -0.0043
     31 C         143.5749  144.8666  163.1811 C.ar    1  UNL1       -0.0003
     32 C         142.0772  144.7960  163.1385 C.ar    1  UNL1       -0.0000
     33 C         141.3995  143.6114  162.5158 C.ar    1  UNL1       -0.0003
     34 C         142.2197  142.4976  161.9357 C.ar    1  UNL1       -0.0043
@<TRIPOS>BOND
     1    16    17    1
     2    17    15    1
     3    15    14    1
     4    14    13    1
     5    13    12    1
     6    12     4    1
     7     4     5   ar
     8     5     6   ar
     9     6     1    1
    10     1     2    2
    11     1     3   am
    12     3    21    1
    13    22    21    1
    14    22    23    1
    15    23    24    1
    16    24    25    1
    17    25    26    1
    18    26    28    1
    19    28    29    1
    20    29    30   ar
    21    30    31   ar
    22    31    32   ar
    23    32    33   ar
    24    33    34   ar
    25     3    18    1
    26    18    19    1
    27    18    20    1
    28     6     7   ar
    29     7     8   ar
    30     8     9   ar
    31     9    10    1
    32    10    11    1
    33     9     4   ar
    34    26    22    1
    35    34    29   ar
    36    24    27    1
@<TRIPOS>MOLECULE
*****
 34 36 0 0 0
SMALL
GASTEIGER

@<TRIPOS>ATOM
      1 C         140.5554  140.8125  163.2340 C.2     1  UNL1        0.2491
      2 O         141.0803  139.4452  162.9101 O.2     1  UNL1       -0.2699
      3 N         139.7984  141.0427  164.5083 N.am    1  UNL1       -0.2777
      4 C         140.0540  143.3365  160.2127 C.ar    1  UNL1        0.1723
      5 C         139.8220  142.1995  161.1631 C.ar    1  UNL1        0.0446
      6 C         140.7874  141.9496  162.2836 C.ar    1  UNL1        0.0568
      7 C         141.9849  142.8368  162.4537 C.ar    1  UNL1        0.0078
      8 C         142.2169  143.9738  161.5033 C.ar    1  UNL1        0.0402
      9 C         141.2514  144.2237  160.3828 C.ar    1  UNL1        0.1724
     10 O         141.4835  145.3608  159.4324 O.3     1  UNL1       -0.4684
     11 C         142.1663  145.1138  158.1199 C.3     1  UNL1        0.2526
     12 O         139.0885  143.5864  159.0923 O.3     1  UNL1       -0.4723
     13 C         139.3706  143.0414  157.7236 C.3     1  UNL1        0.2082
     14 C         138.9003  141.6663  157.3523 C.3     1  UNL1        0.0794
     15 C         137.7819  141.0239  158.1181 C.3     1  UNL1        0.1461
     16 C         139.3966  139.1599  158.9356 C.3     1  UNL1        0.1741
     17 O         138.0540  139.8272  158.9806 O.3     1  UNL1       -0.3510
     18 C         139.2734  142.4101  164.8323 C.3     1  UNL1        0.0757
     19 C         140.1161  143.3701  165.6185 C.3     1  UNL1        0.0215
     20 C         137.9058  142.8173  164.3700 C.3     1  UNL1        0.0215
     21 C         139.5663  139.9057  165.4587 C.3     1  UNL1        0.0950
     22 C         140.2750  139.8764  166.7804 C.3     1  UNL1        0.0373
     23 C         139.6531  140.1373  168.1203 C.3     1  UNL1        0.0703
     24 N         140.7238  140.0032  169.1623 N.3     1  UNL1       -0.2974
     25 C         142.0073  139.6594  168.4664 C.3     1  UNL1        0.0690
     26 C         141.7300  139.5811  166.9944 C.3     1  UNL1        0.0231
     27 H         140.4769  139.2627  169.8189 H       1  UNL1        0.1232
     28 C         142.7318  139.2632  165.9242 C.3     1  UNL1        0.0278
     29 C         143.5755  140.3561  165.3381 C.ar    1  UNL1       -0.0221
     30 C         143.3883  141.7735  165.7920 C.ar    1  UNL1       -0.0043
     31 C         144.2320  142.8664  165.2059 C.ar    1  UNL1       -0.0003
     32 C         145.2630  142.5421  164.1657 C.ar    1  UNL1       -0.0000
     33 C         145.4502  141.1247  163.7117 C.ar    1  UNL1       -0.0003
     34 C         144.6065  140.0318  164.2979 C.ar    1  UNL1       -0.0043
@<TRIPOS>BOND
     1    16    17    1
     2    17    15    1
     3    15    14    1
     4    14    13    1
     5    13    12    1
     6    12     4    1
     7     4     5   ar
     8     5     6   ar
     9     6     1    1
    10     1     2    2
    11     1     3   am
    12     3    21    1
    13    22    21    1
    14    22    23    1
    15    23    24    1
    16    24    25    1
    17    25    26    1
    18    26    28    1
    19    28    29    1
    20    29    30   ar
    21    30    31   ar
    22    31    32   ar
    23    32    33   ar
    24    33    34   ar
    25     3    18    1
    26    18    19    1
    27    18    20    1
    28     6     7   ar
    29     7     8   ar
    30     8     9   ar
    31     9    10    1
    32    10    11    1
    33     9     4   ar
    34    26    22    1
    35    34    29   ar
    36    24    27    1
