@<TRIPOS>MOLECULE
*****
 40 44 0 0 0
SMALL
GASTEIGER

@<TRIPOS>ATOM
      1 N         142.6918  139.5214  160.2726 N.am    1  UNL1       -0.2766
      2 C         142.1668  138.7121  161.4213 C.2     1  UNL1        0.2673
      3 O         141.1091  137.6748  161.1864 O.2     1  UNL1       -0.2682
      4 H         143.3860  140.2023  160.4268 H       1  UNL1        0.1553
      5 C         140.8021  139.6929  158.3898 C.ar    1  UNL1        0.1691
      6 N         140.6941  139.2723  156.9541 N.ar    1  UNL1       -0.1632
      7 N         141.9843  138.6128  156.5659 N.ar    1  UNL1       -0.2459
      8 C         142.3116  138.0407  155.2185 C.3     1  UNL1        0.1538
      9 C         142.8896  138.6258  157.7619 C.ar    1  UNL1        0.1115
     10 C         142.1590  139.2934  158.8890 C.ar    1  UNL1        0.0937
     11 C         139.7511  143.8182  161.0076 C.3     1  UNL1        0.1063
     12 C         139.0585  142.5489  160.6087 C.3     1  UNL1        0.1122
     13 N         140.0173  141.7349  159.7914 N.am    1  UNL1       -0.2708
     14 C         139.7398  140.3906  159.1865 C.2     1  UNL1        0.2699
     15 O         138.3999  139.7441  159.3782 O.2     1  UNL1       -0.2681
     16 C         141.3025  142.5011  159.6853 C.3     1  UNL1        0.1243
     17 C         141.1379  143.7887  160.4370 C.3     1  UNL1        0.1464
     18 O         142.1777  144.8589  160.5909 O.3     1  UNL1       -0.3813
     19 H         142.9864  144.5932  160.1258 H       1  UNL1        0.2105
     20 C         138.1321  144.6104  162.8789 C.3     1  UNL1        0.0897
     21 N         139.1604  144.9231  161.8325 N.3     1  UNL1       -0.2680
     22 C         139.5980  146.3407  161.6110 C.3     1  UNL1        0.0897
     23 C         142.6996  138.9401  162.8048 C.ar    1  UNL1        0.1347
     24 C         144.1800  139.0112  163.0362 C.ar    1  UNL1        0.0238
     25 C         144.7127  139.2392  164.4197 C.ar    1  UNL1        0.0032
     26 C         143.7651  139.3962  165.5719 C.ar    1  UNL1        0.0192
     27 C         142.2848  139.3251  165.3405 C.ar    1  UNL1        0.0816
     28 N         141.7520  139.0971  163.9570 N.ar    1  UNL1       -0.2408
     29 C         141.3372  139.4821  166.4926 C.ar    1  UNL1        0.0220
     30 C         139.8596  139.3480  166.2721 C.ar    1  UNL1        0.0223
     31 C         138.9120  139.5049  167.4242 C.ar    1  UNL1        0.1003
     32 N         139.4420  139.7961  168.7969 N.ar    1  UNL1       -0.2294
     33 C         140.9196  139.9302  169.0175 C.ar    1  UNL1        0.1286
     34 C         141.8672  139.7732  167.8653 C.ar    1  UNL1        0.0356
     35 N         141.4497  140.2213  170.3902 N.pl3   1  UNL1       -0.3181
     36 H         141.9484  139.5296  170.8822 H       1  UNL1        0.1482
     37 C         141.2198  141.5663  171.0132 C.3     1  UNL1        0.0881
     38 C         140.7974  142.7257  170.1603 C.3     1  UNL1        0.0196
     39 C         140.4340  144.1747  170.0254 C.3     1  UNL1        0.0017
     40 C         140.4292  143.2847  168.8180 C.3     1  UNL1        0.0017
@<TRIPOS>BOND
     1    20    21    1
     2    21    22    1
     3    11    21    1
     4    11    12    1
     5    12    13    1
     6    13    14   am
     7    14    15    2
     8    14     5    1
     9     5     6   ar
    10     6     7   ar
    11     7     8    1
    12     7     9   ar
    13     9    10   ar
    14    10     1    1
    15     1     2   am
    16     2     3    2
    17     2    23    1
    18    23    24   ar
    19    24    25   ar
    20    25    26   ar
    21    26    27   ar
    22    27    29    1
    23    29    30   ar
    24    30    31   ar
    25    31    32   ar
    26    32    33   ar
    27    33    35    1
    28    35    37    1
    29    37    38    1
    30    38    39    1
    31    39    40    1
    32    33    34   ar
    33    27    28   ar
    34    13    16    1
    35    16    17    1
    36    17    18    1
    37    17    11    1
    38    10     5   ar
    39    28    23   ar
    40    34    29   ar
    41    40    38    1
    42     1     4    1
    43    35    36    1
    44    18    19    1
@<TRIPOS>MOLECULE
*****
 40 44 0 0 0
SMALL
GASTEIGER

@<TRIPOS>ATOM
      1 N         139.7135  142.2128  159.5958 N.am    1  UNL1       -0.2766
      2 C         138.7584  142.1084  160.7476 C.2     1  UNL1        0.2673
      3 O         137.9094  143.2854  161.1270 O.2     1  UNL1       -0.2682
      4 H         140.2707  141.4403  159.3469 H       1  UNL1        0.1553
      5 C         140.3698  144.7912  159.3381 C.ar    1  UNL1        0.1691
      6 N         140.2845  145.8021  158.2333 N.ar    1  UNL1       -0.1632
      7 N         139.6816  145.1299  157.0354 N.ar    1  UNL1       -0.2459
      8 C         139.4132  145.7714  155.7064 C.3     1  UNL1        0.1538
      9 C         139.3944  143.7034  157.4001 C.ar    1  UNL1        0.1115
     10 C         139.8197  143.4942  158.8232 C.ar    1  UNL1        0.0937
     11 C         143.7054  143.2328  162.7176 C.3     1  UNL1        0.1063
     12 C         142.6519  144.2945  162.6039 C.3     1  UNL1        0.1122
     13 N         142.0138  144.1714  161.2521 N.am    1  UNL1       -0.2708
     14 C         140.9103  145.0345  160.7160 C.2     1  UNL1        0.2699
     15 O         140.3473  146.1409  161.5580 O.2     1  UNL1       -0.2681
     16 C         142.6729  143.0336  160.5302 C.3     1  UNL1        0.1243
     17 C         143.7184  142.4535  161.4360 C.3     1  UNL1        0.1464
     18 O         144.6188  141.2971  161.1162 O.3     1  UNL1       -0.3813
     19 H         144.4238  140.9728  160.2231 H       1  UNL1        0.2105
     20 C         145.6879  141.9727  163.8276 C.3     1  UNL1        0.0897
     21 N         144.5906  142.9925  163.9046 N.3     1  UNL1       -0.2680
     22 C         144.3784  143.7720  165.1684 C.3     1  UNL1        0.0897
     23 C         138.6522  140.8270  161.5202 C.ar    1  UNL1        0.1347
     24 C         138.4120  139.5340  160.7988 C.ar    1  UNL1        0.0238
     25 C         138.3058  138.2527  161.5714 C.ar    1  UNL1        0.0032
     26 C         138.4399  138.2644  163.0654 C.ar    1  UNL1        0.0192
     27 C         138.6801  139.5574  163.7867 C.ar    1  UNL1        0.0816
     28 N         138.7863  140.8387  163.0142 N.ar    1  UNL1       -0.2408
     29 C         138.8142  139.5691  165.2807 C.ar    1  UNL1        0.0220
     30 C         137.8291  138.8196  166.1280 C.ar    1  UNL1        0.0223
     31 C         137.9632  138.8313  167.6219 C.ar    1  UNL1        0.1003
     32 N         139.0823  139.5924  168.2686 N.ar    1  UNL1       -0.2294
     33 C         140.0673  140.3419  167.4213 C.ar    1  UNL1        0.1286
     34 C         139.9333  140.3302  165.9274 C.ar    1  UNL1        0.0356
     35 N         141.1865  141.1031  168.0680 N.pl3   1  UNL1       -0.3181
     36 H         141.0157  141.9882  168.4636 H       1  UNL1        0.1482
     37 C         142.5660  140.5156  168.1118 C.3     1  UNL1        0.0881
     38 C         143.0349  139.6192  167.0043 C.3     1  UNL1        0.0196
     39 C         143.4388  138.2594  166.5165 C.3     1  UNL1        0.0017
     40 C         143.4433  139.4263  165.5739 C.3     1  UNL1        0.0017
@<TRIPOS>BOND
     1    20    21    1
     2    21    22    1
     3    11    21    1
     4    11    12    1
     5    12    13    1
     6    13    14   am
     7    14    15    2
     8    14     5    1
     9     5     6   ar
    10     6     7   ar
    11     7     8    1
    12     7     9   ar
    13     9    10   ar
    14    10     1    1
    15     1     2   am
    16     2     3    2
    17     2    23    1
    18    23    24   ar
    19    24    25   ar
    20    25    26   ar
    21    26    27   ar
    22    27    29    1
    23    29    30   ar
    24    30    31   ar
    25    31    32   ar
    26    32    33   ar
    27    33    35    1
    28    35    37    1
    29    37    38    1
    30    38    39    1
    31    39    40    1
    32    33    34   ar
    33    27    28   ar
    34    13    16    1
    35    16    17    1
    36    17    18    1
    37    17    11    1
    38    10     5   ar
    39    28    23   ar
    40    34    29   ar
    41    40    38    1
    42     1     4    1
    43    35    36    1
    44    18    19    1
@<TRIPOS>MOLECULE
*****
 40 44 0 0 0
SMALL
GASTEIGER

@<TRIPOS>ATOM
      1 N         141.1553  144.5314  160.8003 N.am    1  UNL1       -0.2766
      2 C         142.5366  144.0357  161.1104 C.2     1  UNL1        0.2673
      3 O         143.4564  143.6323  159.9962 O.2     1  UNL1       -0.2682
      4 H         140.5516  144.7962  161.5315 H       1  UNL1        0.1553
      5 C         140.4866  143.4703  158.4397 C.ar    1  UNL1        0.1691
      6 N         140.0231  144.0195  157.1231 N.ar    1  UNL1       -0.1632
      7 N         139.9437  145.5124  157.2456 N.ar    1  UNL1       -0.2459
      8 C         139.5237  146.4646  156.1654 C.3     1  UNL1        0.1538
      9 C         140.3582  145.8859  158.6380 C.ar    1  UNL1        0.1115
     10 C         140.6937  144.6238  159.3760 C.ar    1  UNL1        0.0937
     11 C         138.8747  139.6541  161.2351 C.3     1  UNL1        0.1063
     12 C         139.9342  139.9062  160.2037 C.3     1  UNL1        0.1122
     13 N         139.8355  141.3412  159.7788 N.am    1  UNL1       -0.2708
     14 C         140.7047  142.0220  158.7634 C.2     1  UNL1        0.2699
     15 O         141.7920  141.2544  158.0716 O.2     1  UNL1       -0.2681
     16 C         138.7148  141.9762  160.5475 C.3     1  UNL1        0.1243
     17 C         138.1210  140.9334  161.4476 C.3     1  UNL1        0.1464
     18 O         136.9747  141.1348  162.3940 O.3     1  UNL1       -0.3813
     19 H         136.6675  142.0532  162.3389 H       1  UNL1        0.2105
     20 C         137.3156  137.6323  161.7168 C.3     1  UNL1        0.0897
     21 N         138.6144  138.3514  161.9317 N.3     1  UNL1       -0.2680
     22 C         139.6529  137.7677  162.8432 C.3     1  UNL1        0.0897
     23 C         142.9982  143.9434  162.5346 C.ar    1  UNL1        0.1347
     24 C         143.6384  145.1289  163.1939 C.ar    1  UNL1        0.0238
     25 C         144.1000  145.0365  164.6181 C.ar    1  UNL1        0.0032
     26 C         143.9213  143.7586  165.3830 C.ar    1  UNL1        0.0192
     27 C         143.2811  142.5731  164.7238 C.ar    1  UNL1        0.0816
     28 N         142.8195  142.6655  163.2996 N.ar    1  UNL1       -0.2408
     29 C         143.1024  141.2953  165.4887 C.ar    1  UNL1        0.0220
     30 C         143.8047  140.0481  165.0401 C.ar    1  UNL1        0.0223
     31 C         143.6260  138.7703  165.8050 C.ar    1  UNL1        0.1003
     32 N         142.7450  138.7395  167.0186 N.ar    1  UNL1       -0.2294
     33 C         142.0427  139.9867  167.4672 C.ar    1  UNL1        0.1286
     34 C         142.2213  141.2645  166.7023 C.ar    1  UNL1        0.0356
     35 N         141.1616  139.9560  168.6808 N.pl3   1  UNL1       -0.3181
     36 H         141.5576  139.8326  169.5737 H       1  UNL1        0.1482
     37 C         139.6771  140.1133  168.5340 C.3     1  UNL1        0.0881
     38 C         138.9919  139.6362  167.2879 C.3     1  UNL1        0.0196
     39 C         138.1000  138.6515  166.5916 C.3     1  UNL1        0.0017
     40 C         138.6971  139.7946  165.8257 C.3     1  UNL1        0.0017
@<TRIPOS>BOND
     1    20    21    1
     2    21    22    1
     3    11    21    1
     4    11    12    1
     5    12    13    1
     6    13    14   am
     7    14    15    2
     8    14     5    1
     9     5     6   ar
    10     6     7   ar
    11     7     8    1
    12     7     9   ar
    13     9    10   ar
    14    10     1    1
    15     1     2   am
    16     2     3    2
    17     2    23    1
    18    23    24   ar
    19    24    25   ar
    20    25    26   ar
    21    26    27   ar
    22    27    29    1
    23    29    30   ar
    24    30    31   ar
    25    31    32   ar
    26    32    33   ar
    27    33    35    1
    28    35    37    1
    29    37    38    1
    30    38    39    1
    31    39    40    1
    32    33    34   ar
    33    27    28   ar
    34    13    16    1
    35    16    17    1
    36    17    18    1
    37    17    11    1
    38    10     5   ar
    39    28    23   ar
    40    34    29   ar
    41    40    38    1
    42     1     4    1
    43    35    36    1
    44    18    19    1
@<TRIPOS>MOLECULE
*****
 40 44 0 0 0
SMALL
GASTEIGER

@<TRIPOS>ATOM
      1 N         141.9750  144.5072  160.0415 N.am    1  UNL1       -0.2766
      2 C         141.3526  144.3431  161.3964 C.2     1  UNL1        0.2673
      3 O         139.8613  144.3978  161.5482 O.2     1  UNL1       -0.2682
      4 H         142.9538  144.4712  159.9419 H       1  UNL1        0.1553
      5 C         140.2136  143.7047  158.1979 C.ar    1  UNL1        0.1691
      6 N         139.5332  144.3521  157.0284 N.ar    1  UNL1       -0.1632
      7 N         140.0052  145.7735  156.9461 N.ar    1  UNL1       -0.2459
      8 C         139.5797  146.7861  155.9245 C.3     1  UNL1        0.1538
      9 C         140.9774  146.0046  158.0649 C.ar    1  UNL1        0.1115
     10 C         141.1062  144.7260  158.8385 C.ar    1  UNL1        0.0937
     11 C         142.4293  139.2352  158.4990 C.3     1  UNL1        0.1063
     12 C         141.1100  139.8483  158.8648 C.3     1  UNL1        0.1122
     13 N         141.1444  141.2939  158.4663 N.am    1  UNL1       -0.2708
     14 C         140.0333  142.2852  158.6480 C.2     1  UNL1        0.2699
     15 O         138.7420  141.8570  159.2796 O.2     1  UNL1       -0.2681
     16 C         142.4848  141.5744  157.8543 C.3     1  UNL1        0.1243
     17 C         143.2790  140.3019  157.8745 C.3     1  UNL1        0.1464
     18 O         144.6773  140.1271  157.3605 O.3     1  UNL1       -0.3813
     19 H         144.9996  140.9709  157.0067 H       1  UNL1        0.2105
     20 C         143.1997  137.3344  160.0939 C.3     1  UNL1        0.0897
     21 N         142.8287  137.8062  158.7192 N.3     1  UNL1       -0.2680
     22 C         142.8572  136.8490  157.5647 C.3     1  UNL1        0.0897
     23 C         142.2215  144.1243  162.5994 C.ar    1  UNL1        0.1347
     24 C         143.1555  145.2052  163.0566 C.ar    1  UNL1        0.0238
     25 C         144.0243  144.9863  164.2596 C.ar    1  UNL1        0.0032
     26 C         143.9591  143.6865  165.0054 C.ar    1  UNL1        0.0192
     27 C         143.0250  142.6056  164.5482 C.ar    1  UNL1        0.0816
     28 N         142.1562  142.8244  163.3452 N.ar    1  UNL1       -0.2408
     29 C         142.9598  141.3057  165.2940 C.ar    1  UNL1        0.0220
     30 C         143.8097  140.1485  164.8599 C.ar    1  UNL1        0.0223
     31 C         143.7445  138.8487  165.6057 C.ar    1  UNL1        0.1003
     32 N         142.8294  138.7061  166.7856 N.ar    1  UNL1       -0.2294
     33 C         141.9795  139.8633  167.2197 C.ar    1  UNL1        0.1286
     34 C         142.0447  141.1632  166.4739 C.ar    1  UNL1        0.0356
     35 N         141.0644  139.7208  168.3997 N.pl3   1  UNL1       -0.3181
     36 H         141.4196  139.4091  169.2633 H       1  UNL1        0.1482
     37 C         139.6080  140.0531  168.2637 C.3     1  UNL1        0.0881
     38 C         138.8086  139.4735  167.1346 C.3     1  UNL1        0.0196
     39 C         138.0403  138.3310  166.5394 C.3     1  UNL1        0.0017
     40 C         138.1925  139.6120  165.7740 C.3     1  UNL1        0.0017
@<TRIPOS>BOND
     1    20    21    1
     2    21    22    1
     3    11    21    1
     4    11    12    1
     5    12    13    1
     6    13    14   am
     7    14    15    2
     8    14     5    1
     9     5     6   ar
    10     6     7   ar
    11     7     8    1
    12     7     9   ar
    13     9    10   ar
    14    10     1    1
    15     1     2   am
    16     2     3    2
    17     2    23    1
    18    23    24   ar
    19    24    25   ar
    20    25    26   ar
    21    26    27   ar
    22    27    29    1
    23    29    30   ar
    24    30    31   ar
    25    31    32   ar
    26    32    33   ar
    27    33    35    1
    28    35    37    1
    29    37    38    1
    30    38    39    1
    31    39    40    1
    32    33    34   ar
    33    27    28   ar
    34    13    16    1
    35    16    17    1
    36    17    18    1
    37    17    11    1
    38    10     5   ar
    39    28    23   ar
    40    34    29   ar
    41    40    38    1
    42     1     4    1
    43    35    36    1
    44    18    19    1
@<TRIPOS>MOLECULE
*****
 40 44 0 0 0
SMALL
GASTEIGER

@<TRIPOS>ATOM
      1 N         141.7255  141.1105  160.2937 N.am    1  UNL1       -0.2766
      2 C         142.9647  141.3813  161.0943 C.2     1  UNL1        0.2673
      3 O         144.0200  142.3008  160.5551 O.2     1  UNL1       -0.2682
      4 H         141.0329  140.5070  160.6476 H       1  UNL1        0.1553
      5 C         142.0858  141.2574  157.6491 C.ar    1  UNL1        0.1691
      6 N         141.6618  142.2117  156.5722 N.ar    1  UNL1       -0.1632
      7 N         140.8556  143.3033  157.2113 N.ar    1  UNL1       -0.2459
      8 C         140.2330  144.4697  156.5030 C.3     1  UNL1        0.1538
      9 C         140.7813  143.0237  158.6833 C.ar    1  UNL1        0.1115
     10 C         141.5417  141.7592  158.9537 C.ar    1  UNL1        0.0937
     11 C         141.8952  136.4090  156.4524 C.3     1  UNL1        0.1063
     12 C         142.9368  137.4200  156.8306 C.3     1  UNL1        0.1122
     13 N         142.2474  138.7323  157.0593 N.am    1  UNL1       -0.2708
     14 C         142.9094  140.0188  157.4554 C.2     1  UNL1        0.2699
     15 O         144.3949  140.0666  157.6577 O.2     1  UNL1       -0.2681
     16 C         140.7798  138.5325  156.8225 C.3     1  UNL1        0.1243
     17 C         140.5621  137.0965  156.4474 C.3     1  UNL1        0.1464
     18 O         139.2429  136.4599  156.1241 O.3     1  UNL1       -0.3813
     19 H         138.5382  137.1229  156.1939 H       1  UNL1        0.2105
     20 C         143.0304  134.1427  157.0228 C.3     1  UNL1        0.0897
     21 N         142.1433  134.9641  156.1349 N.3     1  UNL1       -0.2680
     22 C         141.5042  134.3406  154.9296 C.3     1  UNL1        0.0897
     23 C         143.1485  140.7326  162.4343 C.ar    1  UNL1        0.1347
     24 C         144.5153  140.3028  162.8783 C.ar    1  UNL1        0.0238
     25 C         144.6991  139.6541  164.2182 C.ar    1  UNL1        0.0032
     26 C         143.5161  139.4353  165.1141 C.ar    1  UNL1        0.0192
     27 C         142.1494  139.8652  164.6702 C.ar    1  UNL1        0.0816
     28 N         141.9656  140.5138  163.3303 N.ar    1  UNL1       -0.2408
     29 C         140.9664  139.6463  165.5661 C.ar    1  UNL1        0.0220
     30 C         139.6598  139.1928  164.9858 C.ar    1  UNL1        0.0223
     31 C         138.4768  138.9740  165.8817 C.ar    1  UNL1        0.1003
     32 N         138.6005  139.2087  167.3580 N.ar    1  UNL1       -0.2294
     33 C         139.9071  139.6623  167.9384 C.ar    1  UNL1        0.1286
     34 C         141.0901  139.8811  167.0424 C.ar    1  UNL1        0.0356
     35 N         140.0309  139.8970  169.4148 N.pl3   1  UNL1       -0.3181
     36 H         140.4419  139.2115  169.9895 H       1  UNL1        0.1482
     37 C         139.5284  141.1764  170.0154 C.3     1  UNL1        0.0881
     38 C         140.3347  142.4343  169.8837 C.3     1  UNL1        0.0196
     39 C         140.4005  143.9247  169.7276 C.3     1  UNL1        0.0017
     40 C         141.6653  143.1228  169.8117 C.3     1  UNL1        0.0017
@<TRIPOS>BOND
     1    20    21    1
     2    21    22    1
     3    11    21    1
     4    11    12    1
     5    12    13    1
     6    13    14   am
     7    14    15    2
     8    14     5    1
     9     5     6   ar
    10     6     7   ar
    11     7     8    1
    12     7     9   ar
    13     9    10   ar
    14    10     1    1
    15     1     2   am
    16     2     3    2
    17     2    23    1
    18    23    24   ar
    19    24    25   ar
    20    25    26   ar
    21    26    27   ar
    22    27    29    1
    23    29    30   ar
    24    30    31   ar
    25    31    32   ar
    26    32    33   ar
    27    33    35    1
    28    35    37    1
    29    37    38    1
    30    38    39    1
    31    39    40    1
    32    33    34   ar
    33    27    28   ar
    34    13    16    1
    35    16    17    1
    36    17    18    1
    37    17    11    1
    38    10     5   ar
    39    28    23   ar
    40    34    29   ar
    41    40    38    1
    42     1     4    1
    43    35    36    1
    44    18    19    1
@<TRIPOS>MOLECULE
*****
 40 44 0 0 0
SMALL
GASTEIGER

@<TRIPOS>ATOM
      1 N         141.5216  138.4125  158.2704 N.am    1  UNL1       -0.2766
      2 C         142.0075  138.4229  159.6895 C.2     1  UNL1        0.2673
      3 O         143.4789  138.4608  159.9781 O.2     1  UNL1       -0.2682
      4 H         140.5558  138.3876  158.0810 H       1  UNL1        0.1553
      5 C         142.6308  137.4136  156.0530 C.ar    1  UNL1        0.1691
      6 N         143.7422  137.8378  155.1392 N.ar    1  UNL1       -0.1632
      7 N         144.3054  139.1263  155.6615 N.ar    1  UNL1       -0.2459
      8 C         145.4338  139.9057  155.0539 C.3     1  UNL1        0.1538
      9 C         143.5420  139.4984  156.8980 C.ar    1  UNL1        0.1115
     10 C         142.5071  138.4398  157.1399 C.ar    1  UNL1        0.0937
     11 C         142.7495  132.4188  155.9366 C.3     1  UNL1        0.1063
     12 C         141.7249  133.5087  155.8259 C.3     1  UNL1        0.1122
     13 N         142.4323  134.8248  155.9572 N.am    1  UNL1       -0.2708
     14 C         141.7906  136.1797  155.9057 C.2     1  UNL1        0.2699
     15 O         140.3088  136.3007  155.7069 O.2     1  UNL1       -0.2681
     16 C         143.8940  134.5484  156.1492 C.3     1  UNL1        0.1243
     17 C         144.0901  133.0612  156.1365 C.3     1  UNL1        0.1464
     18 O         145.3973  132.3428  156.2956 O.3     1  UNL1       -0.3813
     19 H         146.1103  132.9905  156.4100 H       1  UNL1        0.2105
     20 C         143.1076  130.0160  156.8579 C.3     1  UNL1        0.0897
     21 N         142.4806  130.9449  155.8609 N.3     1  UNL1       -0.2680
     22 C         141.5848  130.4002  154.7882 C.3     1  UNL1        0.0897
     23 C         141.0219  138.3956  160.8199 C.ar    1  UNL1        0.1347
     24 C         139.5822  138.0707  160.5521 C.ar    1  UNL1        0.0238
     25 C         138.5967  138.0433  161.6826 C.ar    1  UNL1        0.0032
     26 C         139.0508  138.3408  163.0809 C.ar    1  UNL1        0.0192
     27 C         140.4905  138.6657  163.3487 C.ar    1  UNL1        0.0816
     28 N         141.4760  138.6930  162.2182 N.ar    1  UNL1       -0.2408
     29 C         140.9447  138.9632  164.7470 C.ar    1  UNL1        0.0220
     30 C         142.4086  138.9743  165.0737 C.ar    1  UNL1        0.0223
     31 C         142.8627  139.2717  166.4720 C.ar    1  UNL1        0.1003
     32 N         141.8530  139.5582  167.5436 N.ar    1  UNL1       -0.2294
     33 C         140.3891  139.5471  167.2169 C.ar    1  UNL1        0.1286
     34 C         139.9349  139.2496  165.8186 C.ar    1  UNL1        0.0356
     35 N         139.3792  139.8335  168.2885 N.pl3   1  UNL1       -0.3181
     36 H         138.4310  139.6126  168.1430 H       1  UNL1        0.1482
     37 C         139.8143  140.4565  169.5818 C.3     1  UNL1        0.0881
     38 C         140.0356  141.9378  169.6637 C.3     1  UNL1        0.0196
     39 C         139.9752  143.2192  170.4411 C.3     1  UNL1        0.0017
     40 C         140.4791  143.2220  169.0283 C.3     1  UNL1        0.0017
@<TRIPOS>BOND
     1    20    21    1
     2    21    22    1
     3    11    21    1
     4    11    12    1
     5    12    13    1
     6    13    14   am
     7    14    15    2
     8    14     5    1
     9     5     6   ar
    10     6     7   ar
    11     7     8    1
    12     7     9   ar
    13     9    10   ar
    14    10     1    1
    15     1     2   am
    16     2     3    2
    17     2    23    1
    18    23    24   ar
    19    24    25   ar
    20    25    26   ar
    21    26    27   ar
    22    27    29    1
    23    29    30   ar
    24    30    31   ar
    25    31    32   ar
    26    32    33   ar
    27    33    35    1
    28    35    37    1
    29    37    38    1
    30    38    39    1
    31    39    40    1
    32    33    34   ar
    33    27    28   ar
    34    13    16    1
    35    16    17    1
    36    17    18    1
    37    17    11    1
    38    10     5   ar
    39    28    23   ar
    40    34    29   ar
    41    40    38    1
    42     1     4    1
    43    35    36    1
    44    18    19    1
@<TRIPOS>MOLECULE
*****
 40 44 0 0 0
SMALL
GASTEIGER

@<TRIPOS>ATOM
      1 N         140.5814  142.0542  160.9071 N.am    1  UNL1       -0.2766
      2 C         139.3878  142.7848  161.4470 C.2     1  UNL1        0.2673
      3 O         138.2130  143.0631  160.5568 O.2     1  UNL1       -0.2682
      4 H         141.3524  141.8715  161.4914 H       1  UNL1        0.1553
      5 C         140.7793  142.4826  158.2760 C.ar    1  UNL1        0.1691
      6 N         140.7331  141.6146  157.0536 N.ar    1  UNL1       -0.1632
      7 N         140.5254  140.1973  157.4991 N.ar    1  UNL1       -0.2459
      8 C         140.4187  138.9984  156.6040 C.3     1  UNL1        0.1538
      9 C         140.4433  140.1895  158.9969 C.ar    1  UNL1        0.1115
     10 C         140.6003  141.6019  159.4770 C.ar    1  UNL1        0.0937
     11 C         139.3307  146.7823  156.1810 C.3     1  UNL1        0.1063
     12 C         140.2779  146.3327  157.2536 C.3     1  UNL1        0.1122
     13 N         140.1929  144.8383  157.3505 N.am    1  UNL1       -0.2708
     14 C         140.9710  143.9702  158.2944 C.2     1  UNL1        0.2699
     15 O         141.9407  144.5897  159.2565 O.2     1  UNL1       -0.2681
     16 C         139.1930  144.3643  156.3377 C.3     1  UNL1        0.1243
     17 C         138.6601  145.5659  155.6149 C.3     1  UNL1        0.1464
     18 O         137.6365  145.5530  154.5185 O.3     1  UNL1       -0.3813
     19 H         137.3640  144.6391  154.3413 H       1  UNL1        0.2105
     20 C         139.5428  148.6552  154.3927 C.3     1  UNL1        0.0897
     21 N         139.0953  148.1998  155.7501 N.3     1  UNL1       -0.2680
     22 C         138.4124  149.1617  156.6765 C.3     1  UNL1        0.0897
     23 C         139.3689  143.2370  162.8771 C.ar    1  UNL1        0.1347
     24 C         138.6457  144.4952  163.2564 C.ar    1  UNL1        0.0238
     25 C         138.6269  144.9474  164.6864 C.ar    1  UNL1        0.0032
     26 C         139.3313  144.1414  165.7373 C.ar    1  UNL1        0.0192
     27 C         140.0545  142.8832  165.3580 C.ar    1  UNL1        0.0816
     28 N         140.0733  142.4310  163.9280 N.ar    1  UNL1       -0.2408
     29 C         140.7589  142.0772  166.4088 C.ar    1  UNL1        0.0220
     30 C         140.6753  142.4866  167.8494 C.ar    1  UNL1        0.0223
     31 C         141.3797  141.6806  168.9002 C.ar    1  UNL1        0.1003
     32 N         142.1677  140.4653  168.5105 N.ar    1  UNL1       -0.2294
     33 C         142.2512  140.0559  167.0699 C.ar    1  UNL1        0.1286
     34 C         141.5468  140.8619  166.0190 C.ar    1  UNL1        0.0356
     35 N         143.0392  138.8405  166.6800 N.pl3   1  UNL1       -0.3181
     36 H         143.5577  138.3513  167.3590 H       1  UNL1        0.1482
     37 C         143.0372  138.3704  165.2555 C.3     1  UNL1        0.0881
     38 C         141.7886  137.7921  164.6584 C.3     1  UNL1        0.0196
     39 C         141.0819  137.1335  163.5109 C.3     1  UNL1        0.0017
     40 C         140.3328  137.4490  164.7715 C.3     1  UNL1        0.0017
@<TRIPOS>BOND
     1    20    21    1
     2    21    22    1
     3    11    21    1
     4    11    12    1
     5    12    13    1
     6    13    14   am
     7    14    15    2
     8    14     5    1
     9     5     6   ar
    10     6     7   ar
    11     7     8    1
    12     7     9   ar
    13     9    10   ar
    14    10     1    1
    15     1     2   am
    16     2     3    2
    17     2    23    1
    18    23    24   ar
    19    24    25   ar
    20    25    26   ar
    21    26    27   ar
    22    27    29    1
    23    29    30   ar
    24    30    31   ar
    25    31    32   ar
    26    32    33   ar
    27    33    35    1
    28    35    37    1
    29    37    38    1
    30    38    39    1
    31    39    40    1
    32    33    34   ar
    33    27    28   ar
    34    13    16    1
    35    16    17    1
    36    17    18    1
    37    17    11    1
    38    10     5   ar
    39    28    23   ar
    40    34    29   ar
    41    40    38    1
    42     1     4    1
    43    35    36    1
    44    18    19    1
@<TRIPOS>MOLECULE
*****
 40 44 0 0 0
SMALL
GASTEIGER

@<TRIPOS>ATOM
      1 N         140.7050  144.4646  160.6737 N.am    1  UNL1       -0.2766
      2 C         142.1059  144.0697  161.0361 C.2     1  UNL1        0.2673
      3 O         143.1236  143.8419  159.9579 O.2     1  UNL1       -0.2682
      4 H         140.0371  144.6142  161.3814 H       1  UNL1        0.1553
      5 C         139.8641  143.5414  158.3103 C.ar    1  UNL1        0.1691
      6 N         139.5883  144.1543  156.9694 N.ar    1  UNL1       -0.1632
      7 N         139.8753  145.6237  157.0634 N.ar    1  UNL1       -0.2459
      8 C         139.7339  146.6225  155.9533 C.3     1  UNL1        0.1538
      9 C         140.3286  145.9187  158.4626 C.ar    1  UNL1        0.1115
     10 C         140.3217  144.6318  159.2331 C.ar    1  UNL1        0.0937
     11 C         142.2221  139.1389  158.4944 C.3     1  UNL1        0.1063
     12 C         140.8611  139.6845  158.8105 C.3     1  UNL1        0.1122
     13 N         140.8658  141.1515  158.4985 N.am    1  UNL1       -0.2708
     14 C         139.7096  142.0924  158.6660 C.2     1  UNL1        0.2699
     15 O         138.3989  141.5842  159.1893 O.2     1  UNL1       -0.2681
     16 C         142.2298  141.5128  157.9895 C.3     1  UNL1        0.1243
     17 C         143.0681  140.2688  157.9869 C.3     1  UNL1        0.1464
     18 O         144.5008  140.1720  157.5531 O.3     1  UNL1       -0.3813
     19 H         144.8124  141.0456  157.2693 H       1  UNL1        0.2105
     20 C         142.7281  136.8087  157.4626 C.3     1  UNL1        0.0897
     21 N         142.6603  137.7135  158.6571 N.3     1  UNL1       -0.2680
     22 C         143.0307  137.1930  160.0143 C.3     1  UNL1        0.0897
     23 C         142.4893  143.9026  162.4767 C.ar    1  UNL1        0.1347
     24 C         143.7264  144.5659  163.0054 C.ar    1  UNL1        0.0238
     25 C         144.1096  144.3988  164.4459 C.ar    1  UNL1        0.0032
     26 C         143.2558  143.5683  165.3577 C.ar    1  UNL1        0.0192
     27 C         142.0187  142.9050  164.8290 C.ar    1  UNL1        0.0816
     28 N         141.6354  143.0722  163.3885 N.ar    1  UNL1       -0.2408
     29 C         141.1649  142.0746  165.7408 C.ar    1  UNL1        0.0220
     30 C         141.2951  142.2190  167.2281 C.ar    1  UNL1        0.0223
     31 C         140.4413  141.3886  168.1399 C.ar    1  UNL1        0.1003
     32 N         139.4572  140.4137  167.5644 N.ar    1  UNL1       -0.2294
     33 C         139.3270  140.2693  166.0771 C.ar    1  UNL1        0.1286
     34 C         140.1808  141.0998  165.1653 C.ar    1  UNL1        0.0356
     35 N         138.3429  139.2945  165.5015 N.pl3   1  UNL1       -0.3181
     36 H         137.4173  139.5776  165.3215 H       1  UNL1        0.1482
     37 C         138.7691  137.8882  165.2001 C.3     1  UNL1        0.0881
     38 C         139.7752  137.6248  164.1192 C.3     1  UNL1        0.0196
     39 C         140.1721  137.6758  162.6736 C.3     1  UNL1        0.0017
     40 C         141.1207  137.1175  163.6926 C.3     1  UNL1        0.0017
@<TRIPOS>BOND
     1    20    21    1
     2    21    22    1
     3    11    21    1
     4    11    12    1
     5    12    13    1
     6    13    14   am
     7    14    15    2
     8    14     5    1
     9     5     6   ar
    10     6     7   ar
    11     7     8    1
    12     7     9   ar
    13     9    10   ar
    14    10     1    1
    15     1     2   am
    16     2     3    2
    17     2    23    1
    18    23    24   ar
    19    24    25   ar
    20    25    26   ar
    21    26    27   ar
    22    27    29    1
    23    29    30   ar
    24    30    31   ar
    25    31    32   ar
    26    32    33   ar
    27    33    35    1
    28    35    37    1
    29    37    38    1
    30    38    39    1
    31    39    40    1
    32    33    34   ar
    33    27    28   ar
    34    13    16    1
    35    16    17    1
    36    17    18    1
    37    17    11    1
    38    10     5   ar
    39    28    23   ar
    40    34    29   ar
    41    40    38    1
    42     1     4    1
    43    35    36    1
    44    18    19    1
@<TRIPOS>MOLECULE
*****
 40 44 0 0 0
SMALL
GASTEIGER

@<TRIPOS>ATOM
      1 N         142.1581  138.1126  158.9648 N.am    1  UNL1       -0.2766
      2 C         143.2826  139.0245  159.3568 C.2     1  UNL1        0.2673
      3 O         144.2303  139.5380  158.3137 O.2     1  UNL1       -0.2682
      4 H         141.5361  137.7756  159.6495 H       1  UNL1        0.1553
      5 C         141.0376  138.3451  156.5491 C.ar    1  UNL1        0.1691
      6 N         141.1901  137.6355  155.2364 N.ar    1  UNL1       -0.1632
      7 N         142.2281  136.5658  155.4055 N.ar    1  UNL1       -0.2459
      8 C         142.6951  135.6147  154.3438 C.3     1  UNL1        0.1538
      9 C         142.7170  136.6144  156.8229 C.ar    1  UNL1        0.1115
     10 C         141.9812  137.7140  157.5295 C.ar    1  UNL1        0.0937
     11 C         140.7121  143.3181  156.9219 C.3     1  UNL1        0.1063
     12 C         139.8045  142.1318  157.0595 C.3     1  UNL1        0.1122
     13 N         140.6141  140.8962  156.7993 N.am    1  UNL1       -0.2708
     14 C         140.1051  139.4855  156.8318 C.2     1  UNL1        0.2699
     15 O         138.6637  139.2154  157.1469 O.2     1  UNL1       -0.2681
     16 C         142.0220  141.3188  156.5010 C.3     1  UNL1        0.1243
     17 C         142.0826  142.8157  156.5767 C.3     1  UNL1        0.1464
     18 O         143.3001  143.6615  156.3476 O.3     1  UNL1       -0.3813
     19 H         144.0561  143.0905  156.1396 H       1  UNL1        0.2105
     20 C         139.8772  145.5625  155.9141 C.3     1  UNL1        0.0897
     21 N         140.3183  144.7547  157.0985 N.3     1  UNL1       -0.2680
     22 C         140.3655  145.3835  158.4595 C.3     1  UNL1        0.0897
     23 C         143.4594  139.4231  160.7921 C.ar    1  UNL1        0.1347
     24 C         143.8591  138.3978  161.8114 C.ar    1  UNL1        0.0238
     25 C         144.0359  138.7964  163.2466 C.ar    1  UNL1        0.0032
     26 C         143.8131  140.2203  163.6625 C.ar    1  UNL1        0.0192
     27 C         143.4135  141.2456  162.6432 C.ar    1  UNL1        0.0816
     28 N         143.2366  140.8470  161.2080 N.ar    1  UNL1       -0.2408
     29 C         143.1907  142.6694  163.0591 C.ar    1  UNL1        0.0220
     30 C         144.0284  143.2728  164.1473 C.ar    1  UNL1        0.0223
     31 C         143.8056  144.6966  164.5631 C.ar    1  UNL1        0.1003
     32 N         142.7451  145.5172  163.8908 N.ar    1  UNL1       -0.2294
     33 C         141.9074  144.9138  162.8026 C.ar    1  UNL1        0.1286
     34 C         142.1302  143.4900  162.3868 C.ar    1  UNL1        0.0356
     35 N         140.8468  145.7344  162.1303 N.pl3   1  UNL1       -0.3181
     36 H         141.1008  146.4379  161.4901 H       1  UNL1        0.1482
     37 C         139.3995  145.4830  162.4333 C.3     1  UNL1        0.0881
     38 C         139.0076  144.8089  163.7147 C.3     1  UNL1        0.0196
     39 C         138.3889  143.6479  164.4354 C.3     1  UNL1        0.0017
     40 C         138.9475  144.8022  165.2135 C.3     1  UNL1        0.0017
@<TRIPOS>BOND
     1    20    21    1
     2    21    22    1
     3    11    21    1
     4    11    12    1
     5    12    13    1
     6    13    14   am
     7    14    15    2
     8    14     5    1
     9     5     6   ar
    10     6     7   ar
    11     7     8    1
    12     7     9   ar
    13     9    10   ar
    14    10     1    1
    15     1     2   am
    16     2     3    2
    17     2    23    1
    18    23    24   ar
    19    24    25   ar
    20    25    26   ar
    21    26    27   ar
    22    27    29    1
    23    29    30   ar
    24    30    31   ar
    25    31    32   ar
    26    32    33   ar
    27    33    35    1
    28    35    37    1
    29    37    38    1
    30    38    39    1
    31    39    40    1
    32    33    34   ar
    33    27    28   ar
    34    13    16    1
    35    16    17    1
    36    17    18    1
    37    17    11    1
    38    10     5   ar
    39    28    23   ar
    40    34    29   ar
    41    40    38    1
    42     1     4    1
    43    35    36    1
    44    18    19    1
