@<TRIPOS>MOLECULE
*****
 31 34 0 0 0
SMALL
GASTEIGER

@<TRIPOS>ATOM
      1 C         141.4332  142.1016  166.2443 C.2     1  UNL1        0.0021
      2 C         140.9547  142.5344  167.5986 C.2     1  UNL1        0.0130
      3 C         141.2407  141.6854  168.8017 C.3     1  UNL1        0.1542
      4 C         140.4763  142.9672  168.9527 C.3     1  UNL1        0.0614
      5 C         139.9979  143.3999  170.3069 C.3     1  UNL1        0.0725
      6 N         140.2839  142.5509  171.5100 N.3     1  UNL1       -0.2972
      7 C         141.0483  141.2692  171.3589 C.3     1  UNL1        0.0725
      8 C         141.5267  140.8365  170.0048 C.3     1  UNL1        0.0614
      9 O         142.0052  140.4037  168.6505 O.3     1  UNL1       -0.4785
     10 C         142.4836  139.9709  167.2964 C.ar    1  UNL1        0.1388
     11 C         143.2480  138.6892  167.1452 C.ar    1  UNL1        0.0400
     12 C         143.7264  138.2564  165.7911 C.ar    1  UNL1        0.0397
     13 C         143.4404  139.1054  164.5880 C.ar    1  UNL1        0.1339
     14 O         143.9188  138.6727  163.2338 O.3     1  UNL1       -0.5055
     15 C         142.6760  140.3871  164.7390 C.ar    1  UNL1        0.0396
     16 C         142.1976  140.8199  166.0933 C.ar    1  UNL1        0.0368
     17 H         139.3822  142.3093  171.9209 H       1  UNL1        0.1233
     18 H         144.3963  137.8720  163.1394 H       1  UNL1        0.2922
     19 C         140.5752  144.6486  162.6350 C.ar    1  UNL1        0.0536
     20 C         141.8971  144.7607  163.3350 C.ar    1  UNL1        0.0045
     21 C         142.1831  143.9117  164.5381 C.ar    1  UNL1        0.0001
     22 C         141.1472  142.9506  165.0412 C.ar    1  UNL1       -0.0001
     23 C         139.8252  142.8385  164.3412 C.ar    1  UNL1        0.0001
     24 C         139.5392  143.6874  163.1382 C.ar    1  UNL1        0.0045
     25 N         140.6559  145.0063  160.0630 N.am    1  UNL1       -0.2761
     26 C         140.2892  145.4976  161.4319 C.2     1  UNL1        0.2490
     27 O         139.6364  146.8379  161.5979 O.2     1  UNL1       -0.2699
     28 C         141.2997  145.8259  157.6831 C.3     1  UNL1        0.0233
     29 C         140.3699  145.8552  158.8599 C.3     1  UNL1        0.0938
     30 C         141.3087  143.6659  159.8971 C.3     1  UNL1        0.0938
     31 C         140.4759  142.4610  159.5736 C.3     1  UNL1        0.0233
@<TRIPOS>BOND
     1    28    29    1
     2    29    25    1
     3    25    30    1
     4    30    31    1
     5    25    26   am
     6    26    27    2
     7    26    19    1
     8    19    20   ar
     9    20    21   ar
    10    21    22   ar
    11    22     1    1
    12     1     2    2
    13     2     3    1
    14     3     4    1
    15     4     5    1
    16     5     6    1
    17     6     7    1
    18     7     8    1
    19     3     9    1
    20     9    10    1
    21    10    11   ar
    22    11    12   ar
    23    12    13   ar
    24    13    14    1
    25    13    15   ar
    26    15    16   ar
    27    22    23   ar
    28    23    24   ar
    29    24    19   ar
    30    16     1    1
    31     8     3    1
    32    16    10   ar
    33     6    17    1
    34    14    18    1
@<TRIPOS>MOLECULE
*****
 31 34 0 0 0
SMALL
GASTEIGER

@<TRIPOS>ATOM
      1 C         139.8254  141.9543  165.7652 C.2     1  UNL1        0.0021
      2 C         140.1967  142.4593  167.1280 C.2     1  UNL1        0.0130
      3 C         140.1762  141.5285  168.3041 C.3     1  UNL1        0.1542
      4 C         140.5680  142.9643  168.4907 C.3     1  UNL1        0.0614
      5 C         140.9393  143.4692  169.8535 C.3     1  UNL1        0.0725
      6 N         140.9187  142.5384  171.0295 N.3     1  UNL1       -0.2972
      7 C         140.5269  141.1026  170.8429 C.3     1  UNL1        0.0725
      8 C         140.1556  140.5977  169.4801 C.3     1  UNL1        0.0614
      9 O         139.7843  140.0926  168.1173 O.3     1  UNL1       -0.4785
     10 C         139.4130  139.5877  166.7546 C.ar    1  UNL1        0.1388
     11 C         139.0211  138.1518  166.5678 C.ar    1  UNL1        0.0400
     12 C         138.6498  137.6468  165.2051 C.ar    1  UNL1        0.0397
     13 C         138.6704  138.5777  164.0290 C.ar    1  UNL1        0.1339
     14 O         138.2991  138.0727  162.6663 O.3     1  UNL1       -0.5055
     15 C         139.0622  140.0135  164.2157 C.ar    1  UNL1        0.0396
     16 C         139.4335  140.5185  165.5785 C.ar    1  UNL1        0.0368
     17 H         140.2685  142.9353  171.7078 H       1  UNL1        0.1233
     18 H         138.0543  137.1758  162.5496 H       1  UNL1        0.2922
     19 C         139.8871  144.7468  162.2370 C.ar    1  UNL1        0.0536
     20 C         138.5789  144.3322  162.8426 C.ar    1  UNL1        0.0045
     21 C         138.5584  143.4014  164.0186 C.ar    1  UNL1        0.0001
     22 C         139.8460  142.8851  164.5891 C.ar    1  UNL1       -0.0001
     23 C         141.1542  143.2997  163.9836 C.ar    1  UNL1        0.0001
     24 C         141.1748  144.2306  162.8075 C.ar    1  UNL1        0.0045
     25 N         140.2280  145.1513  159.6934 N.am    1  UNL1       -0.2761
     26 C         139.9077  145.6777  161.0610 C.2     1  UNL1        0.2490
     27 O         139.6079  147.1349  161.2525 O.2     1  UNL1       -0.2699
     28 C         141.2252  145.8586  157.4009 C.3     1  UNL1        0.0233
     29 C         140.2486  146.0821  158.5173 C.3     1  UNL1        0.0938
     30 C         140.5278  143.6941  159.5018 C.3     1  UNL1        0.0938
     31 C         139.4050  142.7053  159.3940 C.3     1  UNL1        0.0233
@<TRIPOS>BOND
     1    28    29    1
     2    29    25    1
     3    25    30    1
     4    30    31    1
     5    25    26   am
     6    26    27    2
     7    26    19    1
     8    19    20   ar
     9    20    21   ar
    10    21    22   ar
    11    22     1    1
    12     1     2    2
    13     2     3    1
    14     3     4    1
    15     4     5    1
    16     5     6    1
    17     6     7    1
    18     7     8    1
    19     3     9    1
    20     9    10    1
    21    10    11   ar
    22    11    12   ar
    23    12    13   ar
    24    13    14    1
    25    13    15   ar
    26    15    16   ar
    27    22    23   ar
    28    23    24   ar
    29    24    19   ar
    30    16     1    1
    31     8     3    1
    32    16    10   ar
    33     6    17    1
    34    14    18    1
@<TRIPOS>MOLECULE
*****
 31 34 0 0 0
SMALL
GASTEIGER

@<TRIPOS>ATOM
      1 C         141.3674  142.0775  162.3003 C.2     1  UNL1        0.0021
      2 C         141.9130  140.8243  161.6822 C.2     1  UNL1        0.0130
      3 C         142.1209  140.7489  160.1986 C.3     1  UNL1        0.1542
      4 C         142.4585  139.5713  161.0640 C.3     1  UNL1        0.0614
      5 C         143.0040  138.3182  160.4458 C.3     1  UNL1        0.0725
      6 N         143.2119  138.2428  158.9622 N.3     1  UNL1       -0.2972
      7 C         142.8743  139.4205  158.0968 C.3     1  UNL1        0.0725
      8 C         142.3288  140.6736  158.7150 C.3     1  UNL1        0.0614
      9 O         141.7832  141.9267  159.3331 O.3     1  UNL1       -0.4785
     10 C         141.2377  143.1798  159.9513 C.ar    1  UNL1        0.1388
     11 C         140.9000  144.3576  159.0859 C.ar    1  UNL1        0.0400
     12 C         140.3545  145.6106  159.7040 C.ar    1  UNL1        0.0397
     13 C         140.1466  145.6860  161.1876 C.ar    1  UNL1        0.1339
     14 O         139.6011  146.9391  161.8058 O.3     1  UNL1       -0.5055
     15 C         140.4842  144.5083  162.0531 C.ar    1  UNL1        0.0396
     16 C         141.0298  143.2552  161.4349 C.ar    1  UNL1        0.0368
     17 H         142.6514  137.4599  158.6258 H       1  UNL1        0.1233
     18 H         139.3902  147.6748  161.2652 H       1  UNL1        0.2922
     19 C         140.7437  142.3036  166.7512 C.ar    1  UNL1        0.0536
     20 C         142.0918  142.6047  166.1665 C.ar    1  UNL1        0.0045
     21 C         142.2997  142.5293  164.6829 C.ar    1  UNL1        0.0001
     22 C         141.1595  142.1529  163.7839 C.ar    1  UNL1       -0.0001
     23 C         139.8113  141.8517  164.3686 C.ar    1  UNL1        0.0001
     24 C         139.6034  141.9271  165.8522 C.ar    1  UNL1        0.0045
     25 N         140.7327  141.1575  169.0827 N.am    1  UNL1       -0.2761
     26 C         140.5358  142.3790  168.2348 C.2     1  UNL1        0.2490
     27 O         140.1309  143.6760  168.8704 O.2     1  UNL1       -0.2699
     28 C         141.6476  141.6702  171.4597 C.3     1  UNL1        0.0233
     29 C         140.5248  141.2329  170.5663 C.3     1  UNL1        0.0938
     30 C         141.1376  139.8605  168.4471 C.3     1  UNL1        0.0938
     31 C         142.5890  139.4950  168.3474 C.3     1  UNL1        0.0233
@<TRIPOS>BOND
     1    28    29    1
     2    29    25    1
     3    25    30    1
     4    30    31    1
     5    25    26   am
     6    26    27    2
     7    26    19    1
     8    19    20   ar
     9    20    21   ar
    10    21    22   ar
    11    22     1    1
    12     1     2    2
    13     2     3    1
    14     3     4    1
    15     4     5    1
    16     5     6    1
    17     6     7    1
    18     7     8    1
    19     3     9    1
    20     9    10    1
    21    10    11   ar
    22    11    12   ar
    23    12    13   ar
    24    13    14    1
    25    13    15   ar
    26    15    16   ar
    27    22    23   ar
    28    23    24   ar
    29    24    19   ar
    30    16     1    1
    31     8     3    1
    32    16    10   ar
    33     6    17    1
    34    14    18    1
@<TRIPOS>MOLECULE
*****
 31 34 0 0 0
SMALL
GASTEIGER

@<TRIPOS>ATOM
      1 C         140.5382  140.7478  163.3104 C.2     1  UNL1        0.0021
      2 C         141.4061  139.9346  164.2244 C.2     1  UNL1        0.0130
      3 C         141.6025  140.3618  165.6488 C.3     1  UNL1        0.1542
      4 C         142.2740  139.1214  165.1384 C.3     1  UNL1        0.0614
      5 C         143.1419  138.3083  166.0525 C.3     1  UNL1        0.0725
      6 N         143.3383  138.7355  167.4769 N.3     1  UNL1       -0.2972
      7 C         142.6667  139.9758  167.9873 C.3     1  UNL1        0.0725
      8 C         141.7988  140.7889  167.0733 C.3     1  UNL1        0.0614
      9 O         140.9308  141.6022  166.1592 O.3     1  UNL1       -0.4785
     10 C         140.0629  142.4153  165.2452 C.ar    1  UNL1        0.1388
     11 C         139.3913  143.6557  165.7556 C.ar    1  UNL1        0.0400
     12 C         138.5234  144.4689  164.8416 C.ar    1  UNL1        0.0397
     13 C         138.3271  144.0417  163.4172 C.ar    1  UNL1        0.1339
     14 O         137.4592  144.8548  162.5031 O.3     1  UNL1       -0.5055
     15 C         138.9986  142.8014  162.9067 C.ar    1  UNL1        0.0396
     16 C         139.8666  141.9881  163.8208 C.ar    1  UNL1        0.0368
     17 H         144.3409  138.8679  167.6090 H       1  UNL1        0.1233
     18 H         137.0396  145.6296  162.8219 H       1  UNL1        0.2922
     19 C         139.9492  139.4664  159.0371 C.ar    1  UNL1        0.0536
     20 C         140.8847  140.5936  159.3599 C.ar    1  UNL1        0.0045
     21 C         141.0810  141.0207  160.7844 C.ar    1  UNL1        0.0001
     22 C         140.3419  140.3207  161.8860 C.ar    1  UNL1       -0.0001
     23 C         139.4064  139.1934  161.5632 C.ar    1  UNL1        0.0001
     24 C         139.2100  138.7662  160.1387 C.ar    1  UNL1        0.0045
     25 N         140.7733  138.1665  156.9439 N.am    1  UNL1       -0.2761
     26 C         139.7529  139.0392  157.6127 C.2     1  UNL1        0.2490
     27 O         138.5361  139.4847  156.8570 O.2     1  UNL1       -0.2699
     28 C         139.6473  136.6070  155.1974 C.3     1  UNL1        0.0233
     29 C         140.5770  137.7394  155.5195 C.3     1  UNL1        0.0938
     30 C         141.9901  137.7210  157.6996 C.3     1  UNL1        0.0938
     31 C         142.8437  136.6119  157.1600 C.3     1  UNL1        0.0233
@<TRIPOS>BOND
     1    28    29    1
     2    29    25    1
     3    25    30    1
     4    30    31    1
     5    25    26   am
     6    26    27    2
     7    26    19    1
     8    19    20   ar
     9    20    21   ar
    10    21    22   ar
    11    22     1    1
    12     1     2    2
    13     2     3    1
    14     3     4    1
    15     4     5    1
    16     5     6    1
    17     6     7    1
    18     7     8    1
    19     3     9    1
    20     9    10    1
    21    10    11   ar
    22    11    12   ar
    23    12    13   ar
    24    13    14    1
    25    13    15   ar
    26    15    16   ar
    27    22    23   ar
    28    23    24   ar
    29    24    19   ar
    30    16     1    1
    31     8     3    1
    32    16    10   ar
    33     6    17    1
    34    14    18    1
@<TRIPOS>MOLECULE
*****
 31 34 0 0 0
SMALL
GASTEIGER

@<TRIPOS>ATOM
      1 C         140.5860  141.3822  163.9277 C.2     1  UNL1        0.0021
      2 C         139.8373  140.7282  165.0510 C.2     1  UNL1        0.0130
      3 C         140.3881  140.7727  166.4455 C.3     1  UNL1        0.1542
      4 C         139.0887  140.0742  166.1743 C.3     1  UNL1        0.0614
      5 C         138.3401  139.4202  167.2976 C.3     1  UNL1        0.0725
      6 N         138.8909  139.4647  168.6921 N.3     1  UNL1       -0.2972
      7 C         140.1903  140.1632  168.9633 C.3     1  UNL1        0.0725
      8 C         140.9389  140.8172  167.8400 C.3     1  UNL1        0.0614
      9 O         141.6876  141.4712  166.7167 O.3     1  UNL1       -0.4785
     10 C         142.4362  142.1252  165.5934 C.ar    1  UNL1        0.1388
     11 C         143.7357  142.8238  165.8645 C.ar    1  UNL1        0.0400
     12 C         144.4843  143.4778  164.7412 C.ar    1  UNL1        0.0397
     13 C         143.9334  143.4332  163.3467 C.ar    1  UNL1        0.1339
     14 O         144.6820  144.0872  162.2234 O.3     1  UNL1       -0.5055
     15 C         142.6340  142.7347  163.0755 C.ar    1  UNL1        0.0396
     16 C         141.8854  142.0807  164.1989 C.ar    1  UNL1        0.0368
     17 H         139.0082  138.4973  168.9934 H       1  UNL1        0.1233
     18 H         145.4937  144.5236  162.3928 H       1  UNL1        0.2922
     19 C         138.9335  141.2487  159.7442 C.ar    1  UNL1        0.0536
     20 C         138.4707  142.3080  160.6999 C.ar    1  UNL1        0.0045
     21 C         139.0215  142.3525  162.0944 C.ar    1  UNL1        0.0001
     22 C         140.0351  141.3377  162.5332 C.ar    1  UNL1       -0.0001
     23 C         140.4980  140.2783  161.5774 C.ar    1  UNL1        0.0001
     24 C         139.9472  140.2338  160.1829 C.ar    1  UNL1        0.0045
     25 N         139.0137  142.0290  157.2674 N.am    1  UNL1       -0.2761
     26 C         138.3827  141.2042  158.3497 C.2     1  UNL1        0.2490
     27 O         137.2008  140.3347  158.0375 O.2     1  UNL1       -0.2699
     28 C         137.2860  142.8383  155.5038 C.3     1  UNL1        0.0233
     29 C         138.4628  141.9845  155.8729 C.3     1  UNL1        0.0938
     30 C         140.1955  142.8985  157.5796 C.3     1  UNL1        0.0938
     31 C         139.9919  144.3409  157.9373 C.3     1  UNL1        0.0233
@<TRIPOS>BOND
     1    28    29    1
     2    29    25    1
     3    25    30    1
     4    30    31    1
     5    25    26   am
     6    26    27    2
     7    26    19    1
     8    19    20   ar
     9    20    21   ar
    10    21    22   ar
    11    22     1    1
    12     1     2    2
    13     2     3    1
    14     3     4    1
    15     4     5    1
    16     5     6    1
    17     6     7    1
    18     7     8    1
    19     3     9    1
    20     9    10    1
    21    10    11   ar
    22    11    12   ar
    23    12    13   ar
    24    13    14    1
    25    13    15   ar
    26    15    16   ar
    27    22    23   ar
    28    23    24   ar
    29    24    19   ar
    30    16     1    1
    31     8     3    1
    32    16    10   ar
    33     6    17    1
    34    14    18    1
@<TRIPOS>MOLECULE
*****
 31 34 0 0 0
SMALL
GASTEIGER

@<TRIPOS>ATOM
      1 C         141.9680  142.1165  162.5699 C.2     1  UNL1        0.0021
      2 C         141.2560  143.3614  162.1301 C.2     1  UNL1        0.0130
      3 C         141.1553  143.6918  160.6704 C.3     1  UNL1        0.1542
      4 C         140.5441  144.6062  161.6903 C.3     1  UNL1        0.0614
      5 C         139.8321  145.8511  161.2504 C.3     1  UNL1        0.0725
      6 N         139.7314  146.1815  159.7908 N.3     1  UNL1       -0.2972
      7 C         140.3426  145.2671  158.7709 C.3     1  UNL1        0.0725
      8 C         141.0546  144.0222  159.2107 C.3     1  UNL1        0.0614
      9 O         141.7666  142.7773  159.6505 O.3     1  UNL1       -0.4785
     10 C         142.4786  141.5325  160.0903 C.ar    1  UNL1        0.1388
     11 C         143.0898  140.6180  159.0704 C.ar    1  UNL1        0.0400
     12 C         143.8018  139.3732  159.5102 C.ar    1  UNL1        0.0397
     13 C         143.9025  139.0428  160.9699 C.ar    1  UNL1        0.1339
     14 O         144.6145  137.7979  161.4097 O.3     1  UNL1       -0.5055
     15 C         143.2913  139.9572  161.9898 C.ar    1  UNL1        0.0396
     16 C         142.5793  141.2021  161.5500 C.ar    1  UNL1        0.0368
     17 H         140.1664  147.0954  159.6650 H       1  UNL1        0.1233
     18 H         144.9963  137.2267  160.7726 H       1  UNL1        0.2922
     19 C         142.2702  141.1253  166.9489 C.ar    1  UNL1        0.0536
     20 C         141.1529  140.5554  166.1263 C.ar    1  UNL1        0.0045
     21 C         141.0522  140.8858  164.6666 C.ar    1  UNL1        0.0001
     22 C         142.0688  141.7861  164.0295 C.ar    1  UNL1       -0.0001
     23 C         143.1862  142.3560  164.8522 C.ar    1  UNL1        0.0001
     24 C         143.2869  142.0256  166.3118 C.ar    1  UNL1        0.0045
     25 N         141.7874  141.7253  169.4302 N.am    1  UNL1       -0.2761
     26 C         142.3709  140.7948  168.4086 C.2     1  UNL1        0.2490
     27 O         143.0552  139.5339  168.8467 O.2     1  UNL1       -0.2699
     28 C         140.8922  140.4662  171.5191 C.3     1  UNL1        0.0233
     29 C         141.8881  141.3949  170.8899 C.3     1  UNL1        0.0938
     30 C         141.1031  142.9863  168.9921 C.3     1  UNL1        0.0938
     31 C         140.5545  143.9362  170.0152 C.3     1  UNL1        0.0233
@<TRIPOS>BOND
     1    28    29    1
     2    29    25    1
     3    25    30    1
     4    30    31    1
     5    25    26   am
     6    26    27    2
     7    26    19    1
     8    19    20   ar
     9    20    21   ar
    10    21    22   ar
    11    22     1    1
    12     1     2    2
    13     2     3    1
    14     3     4    1
    15     4     5    1
    16     5     6    1
    17     6     7    1
    18     7     8    1
    19     3     9    1
    20     9    10    1
    21    10    11   ar
    22    11    12   ar
    23    12    13   ar
    24    13    14    1
    25    13    15   ar
    26    15    16   ar
    27    22    23   ar
    28    23    24   ar
    29    24    19   ar
    30    16     1    1
    31     8     3    1
    32    16    10   ar
    33     6    17    1
    34    14    18    1
@<TRIPOS>MOLECULE
*****
 31 34 0 0 0
SMALL
GASTEIGER

@<TRIPOS>ATOM
      1 C         140.5141  140.6996  163.3641 C.2     1  UNL1        0.0021
      2 C         141.3723  139.9037  164.3023 C.2     1  UNL1        0.0130
      3 C         141.5761  140.3723  165.7126 C.3     1  UNL1        0.1542
      4 C         142.2304  139.1078  165.2404 C.3     1  UNL1        0.0614
      5 C         143.0886  138.3120  166.1786 C.3     1  UNL1        0.0725
      6 N         143.2925  138.7806  167.5888 N.3     1  UNL1       -0.2972
      7 C         142.6382  140.0451  168.0610 C.3     1  UNL1        0.0725
      8 C         141.7800  140.8409  167.1228 C.3     1  UNL1        0.0614
      9 O         140.9218  141.6369  166.1847 O.3     1  UNL1       -0.4785
     10 C         140.0636  142.4327  165.2465 C.ar    1  UNL1        0.1388
     11 C         139.4093  143.6973  165.7187 C.ar    1  UNL1        0.0400
     12 C         138.5511  144.4931  164.7805 C.ar    1  UNL1        0.0397
     13 C         138.3473  144.0245  163.3703 C.ar    1  UNL1        0.1339
     14 O         137.4891  144.8204  162.4321 O.3     1  UNL1       -0.5055
     15 C         139.0016  142.7600  162.8981 C.ar    1  UNL1        0.0396
     16 C         139.8598  141.9641  163.8363 C.ar    1  UNL1        0.0368
     17 H         144.2970  138.9037  167.7159 H       1  UNL1        0.1233
     18 H         137.0804  145.6102  162.7270 H       1  UNL1        0.2922
     19 C         139.9025  139.2938  159.1334 C.ar    1  UNL1        0.0536
     20 C         138.9690  138.8409  160.2165 C.ar    1  UNL1        0.0045
     21 C         139.1728  139.3095  161.6268 C.ar    1  UNL1        0.0001
     22 C         140.3102  140.2310  161.9539 C.ar    1  UNL1       -0.0001
     23 C         141.2439  140.6840  160.8707 C.ar    1  UNL1        0.0001
     24 C         141.0400  140.2154  159.4604 C.ar    1  UNL1        0.0045
     25 N         138.8352  139.6175  156.7869 N.am    1  UNL1       -0.2761
     26 C         139.6987  138.8252  157.7231 C.2     1  UNL1        0.2490
     27 O         140.3583  137.5641  157.2490 O.2     1  UNL1       -0.2699
     28 C         137.3192  139.3865  154.6897 C.3     1  UNL1        0.0233
     29 C         138.6313  139.1489  155.3766 C.3     1  UNL1        0.0938
     30 C         138.1755  140.8786  157.2609 C.3     1  UNL1        0.0938
     31 C         138.8559  142.2007  157.0638 C.3     1  UNL1        0.0233
@<TRIPOS>BOND
     1    28    29    1
     2    29    25    1
     3    25    30    1
     4    30    31    1
     5    25    26   am
     6    26    27    2
     7    26    19    1
     8    19    20   ar
     9    20    21   ar
    10    21    22   ar
    11    22     1    1
    12     1     2    2
    13     2     3    1
    14     3     4    1
    15     4     5    1
    16     5     6    1
    17     6     7    1
    18     7     8    1
    19     3     9    1
    20     9    10    1
    21    10    11   ar
    22    11    12   ar
    23    12    13   ar
    24    13    14    1
    25    13    15   ar
    26    15    16   ar
    27    22    23   ar
    28    23    24   ar
    29    24    19   ar
    30    16     1    1
    31     8     3    1
    32    16    10   ar
    33     6    17    1
    34    14    18    1
@<TRIPOS>MOLECULE
*****
 31 34 0 0 0
SMALL
GASTEIGER

@<TRIPOS>ATOM
      1 C         141.2023  141.5049  165.1744 C.2     1  UNL1        0.0021
      2 C         141.8337  141.3240  166.5230 C.2     1  UNL1        0.0130
      3 C         141.3889  142.1701  167.6790 C.3     1  UNL1        0.1542
      4 C         142.4651  141.1431  167.8716 C.3     1  UNL1        0.0614
      5 C         143.0965  140.9622  169.2201 C.3     1  UNL1        0.0725
      6 N         142.6517  141.8084  170.3761 N.3     1  UNL1       -0.2972
      7 C         141.5755  142.8353  170.1835 C.3     1  UNL1        0.0725
      8 C         140.9442  143.0162  168.8350 C.3     1  UNL1        0.0614
      9 O         140.3127  143.1971  167.4864 O.3     1  UNL1       -0.4785
     10 C         139.6813  143.3780  166.1378 C.ar    1  UNL1        0.1388
     11 C         138.6051  144.4050  165.9452 C.ar    1  UNL1        0.0400
     12 C         137.9737  144.5859  164.5967 C.ar    1  UNL1        0.0397
     13 C         138.4185  143.7398  163.4407 C.ar    1  UNL1        0.1339
     14 O         137.7872  143.9207  162.0922 O.3     1  UNL1       -0.5055
     15 C         139.4947  142.7128  163.6333 C.ar    1  UNL1        0.0396
     16 C         140.1261  142.5319  164.9819 C.ar    1  UNL1        0.0368
     17 H         143.4766  142.3057  170.7116 H       1  UNL1        0.1233
     18 H         137.1149  144.5622  161.9718 H       1  UNL1        0.2922
     19 C         142.5367  138.9666  161.7065 C.ar    1  UNL1        0.0536
     20 C         141.4796  138.4611  162.6430 C.ar    1  UNL1        0.0045
     21 C         141.0348  139.3072  163.7989 C.ar    1  UNL1        0.0001
     22 C         141.6471  140.6588  164.0185 C.ar    1  UNL1       -0.0001
     23 C         142.7043  141.1644  163.0820 C.ar    1  UNL1        0.0001
     24 C         143.1490  140.3183  161.9260 C.ar    1  UNL1        0.0045
     25 N         142.2189  138.1541  159.2593 N.am    1  UNL1       -0.2761
     26 C         142.9814  138.1205  160.5505 C.2     1  UNL1        0.2490
     27 O         144.1889  137.2408  160.6858 O.2     1  UNL1       -0.2699
     28 C         143.0714  137.9554  156.8132 C.3     1  UNL1        0.0233
     29 C         142.6636  137.3080  158.1034 C.3     1  UNL1        0.0938
     30 C         141.0114  139.0338  159.1240 C.3     1  UNL1        0.0938
     31 C         141.1664  140.4562  158.6738 C.3     1  UNL1        0.0233
@<TRIPOS>BOND
     1    28    29    1
     2    29    25    1
     3    25    30    1
     4    30    31    1
     5    25    26   am
     6    26    27    2
     7    26    19    1
     8    19    20   ar
     9    20    21   ar
    10    21    22   ar
    11    22     1    1
    12     1     2    2
    13     2     3    1
    14     3     4    1
    15     4     5    1
    16     5     6    1
    17     6     7    1
    18     7     8    1
    19     3     9    1
    20     9    10    1
    21    10    11   ar
    22    11    12   ar
    23    12    13   ar
    24    13    14    1
    25    13    15   ar
    26    15    16   ar
    27    22    23   ar
    28    23    24   ar
    29    24    19   ar
    30    16     1    1
    31     8     3    1
    32    16    10   ar
    33     6    17    1
    34    14    18    1
@<TRIPOS>MOLECULE
*****
 31 34 0 0 0
SMALL
GASTEIGER

@<TRIPOS>ATOM
      1 C         142.1161  141.6786  163.2702 C.2     1  UNL1        0.0021
      2 C         142.6252  140.6998  164.2866 C.2     1  UNL1        0.0130
      3 C         142.1179  140.7513  165.6972 C.3     1  UNL1        0.1542
      4 C         143.1342  139.7210  165.3028 C.3     1  UNL1        0.0614
      5 C         143.6432  138.7422  166.3191 C.3     1  UNL1        0.0725
      6 N         143.1359  138.7938  167.7298 N.3     1  UNL1       -0.2972
      7 C         142.1196  139.8241  168.1242 C.3     1  UNL1        0.0725
      8 C         141.6106  140.8029  167.1079 C.3     1  UNL1        0.0614
      9 O         141.1015  141.7817  166.0916 O.3     1  UNL1       -0.4785
     10 C         140.5925  142.7605  165.0753 C.ar    1  UNL1        0.1388
     11 C         139.5762  143.7909  165.4697 C.ar    1  UNL1        0.0400
     12 C         139.0672  144.7696  164.4534 C.ar    1  UNL1        0.0397
     13 C         139.5745  144.7181  163.0427 C.ar    1  UNL1        0.1339
     14 O         139.0655  145.6968  162.0264 O.3     1  UNL1       -0.5055
     15 C         140.5908  143.6878  162.6483 C.ar    1  UNL1        0.0396
     16 C         141.0998  142.7089  163.6646 C.ar    1  UNL1        0.0368
     17 H         143.9483  138.9368  168.3298 H       1  UNL1        0.1233
     18 H         138.4307  146.3405  162.2728 H       1  UNL1        0.2922
     19 C         143.6379  141.5240  159.0382 C.ar    1  UNL1        0.0536
     20 C         142.4034  140.7622  159.4196 C.ar    1  UNL1        0.0045
     21 C         141.8961  140.8138  160.8303 C.ar    1  UNL1        0.0001
     22 C         142.6234  141.6271  161.8596 C.ar    1  UNL1       -0.0001
     23 C         143.8580  142.3889  161.4782 C.ar    1  UNL1        0.0001
     24 C         144.3653  142.3373  160.0675 C.ar    1  UNL1        0.0045
     25 N         143.7190  142.5166  156.6386 N.am    1  UNL1       -0.2761
     26 C         144.1452  141.4724  157.6275 C.2     1  UNL1        0.2490
     27 O         145.0788  140.3766  157.2058 O.2     1  UNL1       -0.2699
     28 C         143.5337  141.6048  154.2128 C.3     1  UNL1        0.0233
     29 C         144.2263  142.4651  155.2279 C.3     1  UNL1        0.0938
     30 C         142.7854  143.6124  157.0604 C.3     1  UNL1        0.0938
     31 C         141.3195  143.5054  156.7611 C.3     1  UNL1        0.0233
@<TRIPOS>BOND
     1    28    29    1
     2    29    25    1
     3    25    30    1
     4    30    31    1
     5    25    26   am
     6    26    27    2
     7    26    19    1
     8    19    20   ar
     9    20    21   ar
    10    21    22   ar
    11    22     1    1
    12     1     2    2
    13     2     3    1
    14     3     4    1
    15     4     5    1
    16     5     6    1
    17     6     7    1
    18     7     8    1
    19     3     9    1
    20     9    10    1
    21    10    11   ar
    22    11    12   ar
    23    12    13   ar
    24    13    14    1
    25    13    15   ar
    26    15    16   ar
    27    22    23   ar
    28    23    24   ar
    29    24    19   ar
    30    16     1    1
    31     8     3    1
    32    16    10   ar
    33     6    17    1
    34    14    18    1
