@<TRIPOS>MOLECULE
*****
 34 36 0 0 0
SMALL
GASTEIGER

@<TRIPOS>ATOM
      1 C         140.9789  140.4848  168.5973 C.ar    1  UNL1        0.0764
      2 C         140.0927  139.9935  167.4912 C.ar    1  UNL1        0.0522
      3 C         138.7012  139.5245  167.7973 C.ar    1  UNL1        0.1515
      4 N         138.1959  139.5466  169.2094 N.ar    1  UNL1       -0.1329
      5 N         139.0820  140.0378  170.3155 N.ar    1  UNL1       -0.1409
      6 C         140.4735  140.5069  170.0094 C.ar    1  UNL1        0.1691
      7 C         141.3597  140.9981  171.1155 C.2     1  UNL1        0.2635
      8 N         142.5848  140.2209  171.4962 N.am    1  UNL1       -0.3240
      9 O         141.0207  142.2666  171.8409 O.2     1  UNL1       -0.2686
     10 H         142.8073  139.3884  171.0201 H       1  UNL1        0.1453
     11 H         143.1664  140.5433  172.2222 H       1  UNL1        0.1453
     12 N         142.3704  140.9538  168.2912 N.pl3   1  UNL1       -0.2965
     13 H         142.8735  141.4718  168.9603 H       1  UNL1        0.1537
     14 C         143.9203  141.4148  164.6669 C.ar    1  UNL1        0.0597
     15 C         144.2451  139.9934  164.3147 C.ar    1  UNL1        0.0148
     16 C         143.9449  138.8921  165.2879 C.ar    1  UNL1        0.0041
     17 C         143.3201  139.2123  166.6134 C.ar    1  UNL1        0.0344
     18 C         142.9953  140.6336  166.9657 C.ar    1  UNL1        0.1318
     19 N         143.2954  141.7349  165.9924 N.ar    1  UNL1       -0.2349
     20 C         143.0124  143.2666  164.1705 C.3     1  UNL1        0.0059
     21 C         144.2204  142.5161  163.6937 C.3     1  UNL1        0.0355
     22 C         145.4284  141.7655  163.2169 C.3     1  UNL1        0.0059
     23 C         144.5205  143.6173  162.7205 C.3     1  UNL1        0.0059
     24 N         137.8150  139.0332  166.6912 N.pl3   1  UNL1       -0.3170
     25 H         136.8693  138.8282  166.8724 H       1  UNL1        0.1482
     26 C         138.3697  138.8545  165.3091 C.3     1  UNL1        0.0845
     27 C         139.0673  137.5788  164.9401 C.3     1  UNL1        0.0209
     28 C         139.6220  137.4000  163.5580 C.3     1  UNL1        0.0018
     29 C         139.4791  138.4969  162.5447 C.3     1  UNL1        0.0015
     30 C         138.7816  139.7725  162.9137 C.3     1  UNL1        0.0172
     31 C         138.2269  139.9513  164.2959 C.3     1  UNL1        0.0689
     32 N         137.5294  141.2270  164.6649 N.3     1  UNL1       -0.3209
     33 H         137.5237  141.8559  163.8620 H       1  UNL1        0.1189
     34 H         138.0204  141.6708  165.4410 H       1  UNL1        0.1189
@<TRIPOS>BOND
     1    20    21    1
     2    21    22    1
     3    21    23    1
     4    21    14    1
     5    14    15   ar
     6    15    16   ar
     7    16    17   ar
     8    17    18   ar
     9    18    12    1
    10    12     1    1
    11     1     2   ar
    12     2     3   ar
    13     3    24    1
    14    26    24    1
    15    26    27    1
    16    27    28    1
    17    28    29    1
    18    29    30    1
    19    30    31    1
    20    31    32    1
    21     3     4   ar
    22     4     5   ar
    23     5     6   ar
    24     6     7    1
    25     7     8   am
    26     7     9    2
    27    18    19   ar
    28    19    14   ar
    29     6     1   ar
    30    31    26    1
    31    12    13    1
    32    24    25    1
    33    32    33    1
    34    32    34    1
    35     8    10    1
    36     8    11    1
@<TRIPOS>MOLECULE
*****
 34 36 0 0 0
SMALL
GASTEIGER

@<TRIPOS>ATOM
      1 C         140.9448  140.4500  168.6954 C.ar    1  UNL1        0.0764
      2 C         140.1233  139.9445  167.5467 C.ar    1  UNL1        0.0522
      3 C         138.7161  139.4793  167.7783 C.ar    1  UNL1        0.1515
      4 N         138.1306  139.5195  169.1587 N.ar    1  UNL1       -0.1329
      5 N         138.9521  140.0249  170.3075 N.ar    1  UNL1       -0.1409
      6 C         140.3592  140.4901  170.0759 C.ar    1  UNL1        0.1691
      7 C         141.1807  140.9956  171.2246 C.2     1  UNL1        0.2635
      8 N         142.4778  140.3266  171.5706 N.am    1  UNL1       -0.3240
      9 O         140.7049  142.1701  172.0274 O.2     1  UNL1       -0.2686
     10 H         142.7901  139.5558  171.0438 H       1  UNL1        0.1453
     11 H         143.0170  140.6584  172.3246 H       1  UNL1        0.1453
     12 N         142.3518  140.9152  168.4638 N.pl3   1  UNL1       -0.2965
     13 H         142.9723  141.0037  169.2231 H       1  UNL1        0.1537
     14 C         143.3217  140.5053  164.6374 C.ar    1  UNL1        0.0597
     15 C         143.7371  141.9062  164.2987 C.ar    1  UNL1        0.0148
     16 C         143.6908  142.9768  165.3482 C.ar    1  UNL1        0.0041
     17 C         143.2290  142.6465  166.7366 C.ar    1  UNL1        0.0344
     18 C         142.8136  141.2456  167.0754 C.ar    1  UNL1        0.1318
     19 N         142.8600  140.1750  166.0258 N.ar    1  UNL1       -0.2349
     20 C         143.7597  140.4569  162.5624 C.3     1  UNL1        0.0059
     21 C         143.3681  139.4346  163.5878 C.3     1  UNL1        0.0355
     22 C         142.9765  138.4124  164.6133 C.3     1  UNL1        0.0059
     23 C         143.4144  138.3640  162.5382 C.3     1  UNL1        0.0059
     24 N         137.8946  138.9738  166.6296 N.pl3   1  UNL1       -0.3170
     25 H         136.9585  138.7055  166.7743 H       1  UNL1        0.1482
     26 C         138.4994  138.8771  165.2603 C.3     1  UNL1        0.0845
     27 C         139.1839  137.6136  164.8303 C.3     1  UNL1        0.0209
     28 C         139.7887  137.5169  163.4610 C.3     1  UNL1        0.0018
     29 C         139.7089  138.6837  162.5218 C.3     1  UNL1        0.0015
     30 C         139.0244  139.9473  162.9518 C.3     1  UNL1        0.0172
     31 C         138.4196  140.0439  164.3212 C.3     1  UNL1        0.0689
     32 N         137.7351  141.3075  164.7512 N.3     1  UNL1       -0.3209
     33 H         137.7743  141.9900  163.9942 H       1  UNL1        0.1189
     34 H         138.2045  141.6852  165.5743 H       1  UNL1        0.1189
@<TRIPOS>BOND
     1    20    21    1
     2    21    22    1
     3    21    23    1
     4    21    14    1
     5    14    15   ar
     6    15    16   ar
     7    16    17   ar
     8    17    18   ar
     9    18    12    1
    10    12     1    1
    11     1     2   ar
    12     2     3   ar
    13     3    24    1
    14    26    24    1
    15    26    27    1
    16    27    28    1
    17    28    29    1
    18    29    30    1
    19    30    31    1
    20    31    32    1
    21     3     4   ar
    22     4     5   ar
    23     5     6   ar
    24     6     7    1
    25     7     8   am
    26     7     9    2
    27    18    19   ar
    28    19    14   ar
    29     6     1   ar
    30    31    26    1
    31    12    13    1
    32    24    25    1
    33    32    33    1
    34    32    34    1
    35     8    10    1
    36     8    11    1
@<TRIPOS>MOLECULE
*****
 34 36 0 0 0
SMALL
GASTEIGER

@<TRIPOS>ATOM
      1 C         140.6725  140.8500  168.5594 C.ar    1  UNL1        0.0764
      2 C         139.8828  140.2942  167.4116 C.ar    1  UNL1        0.0522
      3 C         138.6124  139.5398  167.6707 C.ar    1  UNL1        0.1515
      4 N         138.1317  139.3412  169.0776 N.ar    1  UNL1       -0.1329
      5 N         138.9214  139.8970  170.2254 N.ar    1  UNL1       -0.1409
      6 C         140.1917  140.6513  169.9664 C.ar    1  UNL1        0.1691
      7 C         140.9813  141.2071  171.1143 C.2     1  UNL1        0.2635
      8 N         142.2985  140.5930  171.4855 N.am    1  UNL1       -0.3240
      9 O         140.4537  142.3770  171.8909 O.2     1  UNL1       -0.2686
     10 H         142.6448  139.8252  170.9759 H       1  UNL1        0.1453
     11 H         142.8168  140.9578  172.2389 H       1  UNL1        0.1453
     12 N         141.9428  141.6043  168.3004 N.pl3   1  UNL1       -0.2965
     13 H         142.6413  141.6447  168.9930 H       1  UNL1        0.1537
     14 C         141.1868  143.5966  164.9523 C.ar    1  UNL1        0.0597
     15 C         142.5611  143.6830  164.3574 C.ar    1  UNL1        0.0148
     16 C         143.7292  143.0764  165.0768 C.ar    1  UNL1        0.0041
     17 C         143.5232  142.3836  166.3911 C.ar    1  UNL1        0.0344
     18 C         142.1489  142.2972  166.9860 C.ar    1  UNL1        0.1318
     19 N         140.9808  142.9038  166.2666 N.ar    1  UNL1       -0.2349
     20 C         139.1893  144.0812  165.4769 C.3     1  UNL1        0.0059
     21 C         140.0187  144.2032  164.2330 C.3     1  UNL1        0.0355
     22 C         140.8480  144.3251  162.9891 C.3     1  UNL1        0.0059
     23 C         138.8505  144.8097  163.5136 C.3     1  UNL1        0.0059
     24 N         137.8228  138.9840  166.5228 N.pl3   1  UNL1       -0.3170
     25 H         136.8833  138.7202  166.6535 H       1  UNL1        0.1482
     26 C         138.4645  138.8301  165.1758 C.3     1  UNL1        0.0845
     27 C         139.2765  137.6072  164.8671 C.3     1  UNL1        0.0209
     28 C         139.9182  137.4533  163.5201 C.3     1  UNL1        0.0018
     29 C         139.7480  138.5223  162.4817 C.3     1  UNL1        0.0015
     30 C         138.9360  139.7452  162.7903 C.3     1  UNL1        0.0172
     31 C         138.2943  139.8991  164.1374 C.3     1  UNL1        0.0689
     32 N         137.4823  141.1220  164.4461 N.3     1  UNL1       -0.3209
     33 H         137.4728  141.7379  163.6331 H       1  UNL1        0.1189
     34 H         137.8947  141.6126  165.2395 H       1  UNL1        0.1189
@<TRIPOS>BOND
     1    20    21    1
     2    21    22    1
     3    21    23    1
     4    21    14    1
     5    14    15   ar
     6    15    16   ar
     7    16    17   ar
     8    17    18   ar
     9    18    12    1
    10    12     1    1
    11     1     2   ar
    12     2     3   ar
    13     3    24    1
    14    26    24    1
    15    26    27    1
    16    27    28    1
    17    28    29    1
    18    29    30    1
    19    30    31    1
    20    31    32    1
    21     3     4   ar
    22     4     5   ar
    23     5     6   ar
    24     6     7    1
    25     7     8   am
    26     7     9    2
    27    18    19   ar
    28    19    14   ar
    29     6     1   ar
    30    31    26    1
    31    12    13    1
    32    24    25    1
    33    32    33    1
    34    32    34    1
    35     8    10    1
    36     8    11    1
@<TRIPOS>MOLECULE
*****
 34 36 0 0 0
SMALL
GASTEIGER

@<TRIPOS>ATOM
      1 C         141.8791  140.9400  167.2314 C.ar    1  UNL1        0.0764
      2 C         140.6868  140.4282  166.4788 C.ar    1  UNL1        0.0522
      3 C         139.5187  139.8543  167.2246 C.ar    1  UNL1        0.1515
      4 N         139.5428  139.7924  168.7231 N.ar    1  UNL1       -0.1329
      5 N         140.7351  140.3043  169.4758 N.ar    1  UNL1       -0.1409
      6 C         141.9032  140.8780  168.7300 C.ar    1  UNL1        0.1691
      7 C         143.0954  141.3899  169.4827 C.2     1  UNL1        0.2635
      8 N         143.6483  140.6051  170.6353 N.am    1  UNL1       -0.3240
      9 O         143.7348  142.6866  169.0828 O.2     1  UNL1       -0.2686
     10 H         143.2286  139.7541  170.8978 H       1  UNL1        0.1453
     11 H         144.4308  140.9411  171.1293 H       1  UNL1        0.1453
     12 N         143.0472  141.5138  166.4857 N.pl3   1  UNL1       -0.2965
     13 H         143.9447  141.1267  166.6035 H       1  UNL1        0.1537
     14 C         141.2829  144.1425  164.0924 C.ar    1  UNL1        0.0597
     15 C         142.4491  145.0046  163.7096 C.ar    1  UNL1        0.0148
     16 C         143.8147  144.7032  164.2521 C.ar    1  UNL1        0.0041
     17 C         144.0141  143.5396  165.1774 C.ar    1  UNL1        0.0344
     18 C         142.8478  142.6775  165.5603 C.ar    1  UNL1        0.1318
     19 N         141.4823  142.9789  165.0177 N.ar    1  UNL1       -0.2349
     20 C         140.4203  144.2132  162.1557 C.3     1  UNL1        0.0059
     21 C         139.9173  144.4439  163.5499 C.3     1  UNL1        0.0355
     22 C         139.4144  144.6746  164.9441 C.3     1  UNL1        0.0059
     23 C         138.5518  144.7454  163.0073 C.3     1  UNL1        0.0059
     24 N         138.3264  139.3425  166.4719 N.pl3   1  UNL1       -0.3170
     25 H         137.4875  139.1509  166.9502 H       1  UNL1        0.1482
     26 C         138.4124  139.1225  164.9907 C.3     1  UNL1        0.0845
     27 C         138.8923  137.8064  164.4545 C.3     1  UNL1        0.0209
     28 C         138.9783  137.5864  162.9733 C.3     1  UNL1        0.0018
     29 C         138.5844  138.6826  162.0281 C.3     1  UNL1        0.0015
     30 C         138.1045  139.9987  162.5643 C.3     1  UNL1        0.0172
     31 C         138.0185  140.2187  164.0456 C.3     1  UNL1        0.0689
     32 N         137.5386  141.5348  164.5818 N.3     1  UNL1       -0.3209
     33 H         137.3159  142.1574  163.8052 H       1  UNL1        0.1189
     34 H         138.2697  141.9551  165.1556 H       1  UNL1        0.1189
@<TRIPOS>BOND
     1    20    21    1
     2    21    22    1
     3    21    23    1
     4    21    14    1
     5    14    15   ar
     6    15    16   ar
     7    16    17   ar
     8    17    18   ar
     9    18    12    1
    10    12     1    1
    11     1     2   ar
    12     2     3   ar
    13     3    24    1
    14    26    24    1
    15    26    27    1
    16    27    28    1
    17    28    29    1
    18    29    30    1
    19    30    31    1
    20    31    32    1
    21     3     4   ar
    22     4     5   ar
    23     5     6   ar
    24     6     7    1
    25     7     8   am
    26     7     9    2
    27    18    19   ar
    28    19    14   ar
    29     6     1   ar
    30    31    26    1
    31    12    13    1
    32    24    25    1
    33    32    33    1
    34    32    34    1
    35     8    10    1
    36     8    11    1
@<TRIPOS>MOLECULE
*****
 34 36 0 0 0
SMALL
GASTEIGER

@<TRIPOS>ATOM
      1 C         140.0147  140.7197  167.2774 C.ar    1  UNL1        0.0764
      2 C         139.7455  140.4265  165.8312 C.ar    1  UNL1        0.0522
      3 C         138.6934  139.4268  165.4518 C.ar    1  UNL1        0.1515
      4 N         137.9106  138.7204  166.5186 N.ar    1  UNL1       -0.1329
      5 N         138.1798  139.0136  167.9648 N.ar    1  UNL1       -0.1409
      6 C         139.2318  140.0132  168.3442 C.ar    1  UNL1        0.1691
      7 C         139.5011  140.3064  169.7905 C.2     1  UNL1        0.2635
      8 N         140.5192  139.5012  170.5421 N.am    1  UNL1       -0.3240
      9 O         138.7520  141.4049  170.4851 O.2     1  UNL1       -0.2686
     10 H         141.0108  138.7803  170.0862 H       1  UNL1        0.1453
     11 H         140.6959  139.6937  171.4913 H       1  UNL1        0.1453
     12 N         141.0667  141.7193  167.6568 N.pl3   1  UNL1       -0.2965
     13 H         141.2481  141.9067  168.6061 H       1  UNL1        0.1537
     14 C         141.8946  143.9142  164.4557 C.ar    1  UNL1        0.0597
     15 C         143.3936  143.8615  164.4558 C.ar    1  UNL1        0.0148
     16 C         144.1171  143.0948  165.5229 C.ar    1  UNL1        0.0041
     17 C         143.3415  142.3807  166.5899 C.ar    1  UNL1        0.0344
     18 C         141.8424  142.4334  166.5898 C.ar    1  UNL1        0.1318
     19 N         141.1190  143.2002  165.5227 N.ar    1  UNL1       -0.2349
     20 C         142.3945  144.6296  162.5222 C.3     1  UNL1        0.0059
     21 C         141.1711  144.6810  163.3886 C.3     1  UNL1        0.0355
     22 C         139.9477  144.7324  164.2550 C.3     1  UNL1        0.0059
     23 C         140.4477  145.4478  162.3215 C.3     1  UNL1        0.0059
     24 N         138.4242  139.1336  164.0056 N.pl3   1  UNL1       -0.3170
     25 H         137.9665  138.3005  163.7491 H       1  UNL1        0.1482
     26 C         138.8522  140.1097  162.9501 C.3     1  UNL1        0.0845
     27 C         140.1819  139.9490  162.2748 C.3     1  UNL1        0.0209
     28 C         140.6100  140.9250  161.2194 C.3     1  UNL1        0.0018
     29 C         139.7082  142.0619  160.8392 C.3     1  UNL1        0.0015
     30 C         138.3785  142.2226  161.5145 C.3     1  UNL1        0.0172
     31 C         137.9505  141.2465  162.5700 C.3     1  UNL1        0.0689
     32 N         136.6208  141.4072  163.2452 N.3     1  UNL1       -0.3209
     33 H         136.1441  142.2258  162.8669 H       1  UNL1        0.1189
     34 H         136.7613  141.5289  164.2482 H       1  UNL1        0.1189
@<TRIPOS>BOND
     1    20    21    1
     2    21    22    1
     3    21    23    1
     4    21    14    1
     5    14    15   ar
     6    15    16   ar
     7    16    17   ar
     8    17    18   ar
     9    18    12    1
    10    12     1    1
    11     1     2   ar
    12     2     3   ar
    13     3    24    1
    14    26    24    1
    15    26    27    1
    16    27    28    1
    17    28    29    1
    18    29    30    1
    19    30    31    1
    20    31    32    1
    21     3     4   ar
    22     4     5   ar
    23     5     6   ar
    24     6     7    1
    25     7     8   am
    26     7     9    2
    27    18    19   ar
    28    19    14   ar
    29     6     1   ar
    30    31    26    1
    31    12    13    1
    32    24    25    1
    33    32    33    1
    34    32    34    1
    35     8    10    1
    36     8    11    1
@<TRIPOS>MOLECULE
*****
 34 36 0 0 0
SMALL
GASTEIGER

@<TRIPOS>ATOM
      1 C         139.5792  143.7735  162.7834 C.ar    1  UNL1        0.0764
      2 C         138.8709  142.4928  163.1121 C.ar    1  UNL1        0.0522
      3 C         138.1739  141.7222  162.0302 C.ar    1  UNL1        0.1515
      4 N         138.1853  142.2323  160.6197 N.ar    1  UNL1       -0.1329
      5 N         138.8936  143.5130  160.2910 N.ar    1  UNL1       -0.1409
      6 C         139.5905  144.2837  161.3728 C.ar    1  UNL1        0.1691
      7 C         140.2988  145.5644  161.0441 C.2     1  UNL1        0.2635
      8 N         141.4995  145.5481  160.1453 N.am    1  UNL1       -0.3240
      9 O         139.8063  146.8615  161.6143 O.2     1  UNL1       -0.2686
     10 H         141.8228  144.6968  159.7711 H       1  UNL1        0.1453
     11 H         141.9644  146.3887  159.9296 H       1  UNL1        0.1453
     12 N         140.2761  144.5442  163.8652 N.pl3   1  UNL1       -0.2965
     13 H         139.9056  145.4020  164.1753 H       1  UNL1        0.1537
     14 C         142.7300  142.3870  166.1181 C.ar    1  UNL1        0.0597
     15 C         144.0601  142.9351  165.6934 C.ar    1  UNL1        0.0148
     16 C         144.1289  144.0196  164.6593 C.ar    1  UNL1        0.0041
     17 C         142.8676  144.5559  164.0500 C.ar    1  UNL1        0.0344
     18 C         141.5375  144.0078  164.4746 C.ar    1  UNL1        0.1318
     19 N         141.4687  142.9234  165.5087 N.ar    1  UNL1       -0.2349
     20 C         142.2395  140.3233  166.0971 C.3     1  UNL1        0.0059
     21 C         142.6612  141.3026  167.1521 C.3     1  UNL1        0.0355
     22 C         143.0830  142.2819  168.2072 C.3     1  UNL1        0.0059
     23 C         142.5924  140.2182  168.1862 C.3     1  UNL1        0.0059
     24 N         137.4657  140.4414  162.3589 N.pl3   1  UNL1       -0.3170
     25 H         136.5988  140.2367  161.9395 H       1  UNL1        0.1482
     26 C         138.0781  139.4726  163.3264 C.3     1  UNL1        0.0845
     27 C         138.0660  139.7717  164.7962 C.3     1  UNL1        0.0209
     28 C         138.6785  138.8028  165.7638 C.3     1  UNL1        0.0018
     29 C         139.3032  137.5349  165.2615 C.3     1  UNL1        0.0015
     30 C         139.3153  137.2359  163.7917 C.3     1  UNL1        0.0172
     31 C         138.7028  138.2048  162.8241 C.3     1  UNL1        0.0689
     32 N         138.7149  137.9057  161.3543 N.3     1  UNL1       -0.3209
     33 H         139.1756  137.0100  161.1933 H       1  UNL1        0.1189
     34 H         139.2210  138.6417  160.8617 H       1  UNL1        0.1189
@<TRIPOS>BOND
     1    20    21    1
     2    21    22    1
     3    21    23    1
     4    21    14    1
     5    14    15   ar
     6    15    16   ar
     7    16    17   ar
     8    17    18   ar
     9    18    12    1
    10    12     1    1
    11     1     2   ar
    12     2     3   ar
    13     3    24    1
    14    26    24    1
    15    26    27    1
    16    27    28    1
    17    28    29    1
    18    29    30    1
    19    30    31    1
    20    31    32    1
    21     3     4   ar
    22     4     5   ar
    23     5     6   ar
    24     6     7    1
    25     7     8   am
    26     7     9    2
    27    18    19   ar
    28    19    14   ar
    29     6     1   ar
    30    31    26    1
    31    12    13    1
    32    24    25    1
    33    32    33    1
    34    32    34    1
    35     8    10    1
    36     8    11    1
@<TRIPOS>MOLECULE
*****
 34 36 0 0 0
SMALL
GASTEIGER

@<TRIPOS>ATOM
      1 C         140.4216  139.8930  167.0561 C.ar    1  UNL1        0.0764
      2 C         140.2388  139.1419  165.7707 C.ar    1  UNL1        0.0522
      3 C         138.9959  138.3329  165.5450 C.ar    1  UNL1        0.1515
      4 N         137.9359  138.2751  166.6047 N.ar    1  UNL1       -0.1329
      5 N         138.1187  139.0262  167.8901 N.ar    1  UNL1       -0.1409
      6 C         139.3615  139.8352  168.1159 C.ar    1  UNL1        0.1691
      7 C         139.5443  140.5863  169.4013 C.2     1  UNL1        0.2635
      8 N         139.2951  139.9012  170.7123 N.am    1  UNL1       -0.3240
      9 O         139.9764  142.0225  169.3758 O.2     1  UNL1       -0.2686
     10 H         139.0115  138.9586  170.7290 H       1  UNL1        0.1453
     11 H         139.4151  140.3942  171.5559 H       1  UNL1        0.1453
     12 N         141.6644  140.7020  167.2819 N.pl3   1  UNL1       -0.2965
     13 H         142.2287  140.5278  168.0695 H       1  UNL1        0.1537
     14 C         141.3658  143.6299  164.6195 C.ar    1  UNL1        0.0597
     15 C         142.8132  143.9247  164.3588 C.ar    1  UNL1        0.0148
     16 C         143.8777  143.1453  165.0725 C.ar    1  UNL1        0.0041
     17 C         143.4948  142.0710  166.0468 C.ar    1  UNL1        0.0344
     18 C         142.0474  141.7762  166.3075 C.ar    1  UNL1        0.1318
     19 N         140.9828  142.5557  165.5939 N.ar    1  UNL1       -0.2349
     20 C         141.3564  145.2496  163.2497 C.3     1  UNL1        0.0059
     21 C         140.3012  144.4093  163.9059 C.3     1  UNL1        0.0355
     22 C         139.2461  143.5690  164.5620 C.3     1  UNL1        0.0059
     23 C         139.2367  145.1888  163.1922 C.3     1  UNL1        0.0059
     24 N         138.8130  137.5818  164.2595 N.pl3   1  UNL1       -0.3170
     25 H         138.5432  136.6352  164.2766 H       1  UNL1        0.1482
     26 C         139.0413  138.2730  162.9480 C.3     1  UNL1        0.0845
     27 C         138.0335  139.2580  162.4339 C.3     1  UNL1        0.0209
     28 C         138.2617  139.9492  161.1224 C.3     1  UNL1        0.0018
     29 C         139.4978  139.6554  160.3249 C.3     1  UNL1        0.0015
     30 C         140.5056  138.6705  160.8390 C.3     1  UNL1        0.0172
     31 C         140.2773  137.9793  162.1506 C.3     1  UNL1        0.0689
     32 N         141.2850  136.9943  162.6646 N.3     1  UNL1       -0.3209
     33 H         142.0555  136.9182  162.0005 H       1  UNL1        0.1189
     34 H         140.8422  136.0824  162.7777 H       1  UNL1        0.1189
@<TRIPOS>BOND
     1    20    21    1
     2    21    22    1
     3    21    23    1
     4    21    14    1
     5    14    15   ar
     6    15    16   ar
     7    16    17   ar
     8    17    18   ar
     9    18    12    1
    10    12     1    1
    11     1     2   ar
    12     2     3   ar
    13     3    24    1
    14    26    24    1
    15    26    27    1
    16    27    28    1
    17    28    29    1
    18    29    30    1
    19    30    31    1
    20    31    32    1
    21     3     4   ar
    22     4     5   ar
    23     5     6   ar
    24     6     7    1
    25     7     8   am
    26     7     9    2
    27    18    19   ar
    28    19    14   ar
    29     6     1   ar
    30    31    26    1
    31    12    13    1
    32    24    25    1
    33    32    33    1
    34    32    34    1
    35     8    10    1
    36     8    11    1
@<TRIPOS>MOLECULE
*****
 34 36 0 0 0
SMALL
GASTEIGER

@<TRIPOS>ATOM
      1 C         139.0470  141.4202  165.1414 C.ar    1  UNL1        0.0764
      2 C         139.6051  141.2951  166.5281 C.ar    1  UNL1        0.0522
      3 C         139.4384  140.0143  167.2909 C.ar    1  UNL1        0.1515
      4 N         138.7136  138.8587  166.6670 N.ar    1  UNL1       -0.1329
      5 N         138.1556  138.9838  165.2803 N.ar    1  UNL1       -0.1409
      6 C         138.3222  140.2645  164.5175 C.ar    1  UNL1        0.1691
      7 C         137.7642  140.3896  163.1308 C.2     1  UNL1        0.2635
      8 N         137.9545  139.2774  162.1426 N.am    1  UNL1       -0.3240
      9 O         137.0158  141.6271  162.7323 O.2     1  UNL1       -0.2686
     10 H         138.4456  138.4652  162.4041 H       1  UNL1        0.1453
     11 H         137.5882  139.3595  161.2324 H       1  UNL1        0.1453
     12 N         139.2137  142.7009  164.3786 N.pl3   1  UNL1       -0.2965
     13 H         138.4252  143.1595  164.0083 H       1  UNL1        0.1537
     14 C         143.1502  142.9658  163.9499 C.ar    1  UNL1        0.0597
     15 C         143.3182  144.4469  163.7827 C.ar    1  UNL1        0.0148
     16 C         142.1179  145.3461  163.8141 C.ar    1  UNL1        0.0041
     17 C         140.7498  144.7641  164.0127 C.ar    1  UNL1        0.0344
     18 C         140.5819  143.2830  164.1799 C.ar    1  UNL1        0.1318
     19 N         141.7821  142.3838  164.1485 N.ar    1  UNL1       -0.2349
     20 C         144.8514  142.7779  162.6966 C.3     1  UNL1        0.0059
     21 C         144.3505  142.0666  163.9185 C.3     1  UNL1        0.0355
     22 C         143.8495  141.3553  165.1404 C.3     1  UNL1        0.0059
     23 C         145.5507  141.1674  163.8871 C.3     1  UNL1        0.0059
     24 N         139.9964  139.8891  168.6776 N.pl3   1  UNL1       -0.3170
     25 H         139.7259  139.1359  169.2509 H       1  UNL1        0.1482
     26 C         140.9666  140.9116  169.1907 C.3     1  UNL1        0.0845
     27 C         140.4696  142.2441  169.6677 C.3     1  UNL1        0.0209
     28 C         141.4397  143.2665  170.1808 C.3     1  UNL1        0.0018
     29 C         142.9070  142.9565  170.2169 C.3     1  UNL1        0.0015
     30 C         143.4039  141.6240  169.7400 C.3     1  UNL1        0.0172
     31 C         142.4337  140.6016  169.2268 C.3     1  UNL1        0.0689
     32 N         142.9307  139.2691  168.7499 N.3     1  UNL1       -0.3209
     33 H         143.9455  139.2307  168.8451 H       1  UNL1        0.1189
     34 H         142.6760  139.1420  167.7704 H       1  UNL1        0.1189
@<TRIPOS>BOND
     1    20    21    1
     2    21    22    1
     3    21    23    1
     4    21    14    1
     5    14    15   ar
     6    15    16   ar
     7    16    17   ar
     8    17    18   ar
     9    18    12    1
    10    12     1    1
    11     1     2   ar
    12     2     3   ar
    13     3    24    1
    14    26    24    1
    15    26    27    1
    16    27    28    1
    17    28    29    1
    18    29    30    1
    19    30    31    1
    20    31    32    1
    21     3     4   ar
    22     4     5   ar
    23     5     6   ar
    24     6     7    1
    25     7     8   am
    26     7     9    2
    27    18    19   ar
    28    19    14   ar
    29     6     1   ar
    30    31    26    1
    31    12    13    1
    32    24    25    1
    33    32    33    1
    34    32    34    1
    35     8    10    1
    36     8    11    1
@<TRIPOS>MOLECULE
*****
 34 36 0 0 0
SMALL
GASTEIGER

@<TRIPOS>ATOM
      1 C         140.3009  139.2390  164.7631 C.ar    1  UNL1        0.0764
      2 C         140.6667  139.4024  166.2086 C.ar    1  UNL1        0.0522
      3 C         139.5898  139.5103  167.2472 C.ar    1  UNL1        0.1515
      4 N         138.1471  139.4549  166.8402 N.ar    1  UNL1       -0.1329
      5 N         137.7813  139.2915  165.3947 N.ar    1  UNL1       -0.1409
      6 C         138.8582  139.1835  164.3562 C.ar    1  UNL1        0.1691
      7 C         138.4924  139.0201  162.9106 C.2     1  UNL1        0.2635
      8 N         137.5083  139.9572  162.2755 N.am    1  UNL1       -0.3240
      9 O         139.1107  137.9196  162.1003 O.2     1  UNL1       -0.2686
     10 H         137.1025  140.6795  162.8073 H       1  UNL1        0.1453
     11 H         137.2682  139.8499  161.3267 H       1  UNL1        0.1453
     12 N         141.3778  139.1310  163.7245 N.pl3   1  UNL1       -0.2965
     13 H         141.2530  138.5423  162.9454 H       1  UNL1        0.1537
     14 C         143.8645  142.2085  164.0326 C.ar    1  UNL1        0.0597
     15 C         145.1787  141.4985  164.1699 C.ar    1  UNL1        0.0148
     16 C         145.2258  139.9993  164.1586 C.ar    1  UNL1        0.0041
     17 C         143.9589  139.2101  164.0102 C.ar    1  UNL1        0.0344
     18 C         142.6448  139.9202  163.8729 C.ar    1  UNL1        0.1318
     19 N         142.5976  141.4194  163.8842 N.ar    1  UNL1       -0.2349
     20 C         143.1266  143.6960  162.7125 C.3     1  UNL1        0.0059
     21 C         143.8174  143.7078  164.0439 C.3     1  UNL1        0.0355
     22 C         144.5082  143.7195  165.3753 C.3     1  UNL1        0.0059
     23 C         143.7702  145.2070  164.0551 C.3     1  UNL1        0.0059
     24 N         139.9556  139.6737  168.6927 N.pl3   1  UNL1       -0.3170
     25 H         139.5832  139.0606  169.3670 H       1  UNL1        0.1482
     26 C         140.8886  140.7712  169.1108 C.3     1  UNL1        0.0845
     27 C         140.3655  142.1615  169.3194 C.3     1  UNL1        0.0209
     28 C         141.2986  143.2590  169.7375 C.3     1  UNL1        0.0018
     29 C         142.7548  142.9662  169.9470 C.3     1  UNL1        0.0015
     30 C         143.2779  141.5760  169.7384 C.3     1  UNL1        0.0172
     31 C         142.3447  140.4784  169.3203 C.3     1  UNL1        0.0689
     32 N         142.8678  139.0881  169.1117 N.3     1  UNL1       -0.3209
     33 H         143.8707  139.0709  169.2967 H       1  UNL1        0.1189
     34 H         142.6948  138.8007  168.1484 H       1  UNL1        0.1189
@<TRIPOS>BOND
     1    20    21    1
     2    21    22    1
     3    21    23    1
     4    21    14    1
     5    14    15   ar
     6    15    16   ar
     7    16    17   ar
     8    17    18   ar
     9    18    12    1
    10    12     1    1
    11     1     2   ar
    12     2     3   ar
    13     3    24    1
    14    26    24    1
    15    26    27    1
    16    27    28    1
    17    28    29    1
    18    29    30    1
    19    30    31    1
    20    31    32    1
    21     3     4   ar
    22     4     5   ar
    23     5     6   ar
    24     6     7    1
    25     7     8   am
    26     7     9    2
    27    18    19   ar
    28    19    14   ar
    29     6     1   ar
    30    31    26    1
    31    12    13    1
    32    24    25    1
    33    32    33    1
    34    32    34    1
    35     8    10    1
    36     8    11    1
