@<TRIPOS>MOLECULE
*****
 34 38 0 0 0
SMALL
GASTEIGER

@<TRIPOS>ATOM
      1 N         137.9525  142.5050  160.5090 N.pl3   1  UNL1       -0.2960
      2 H         137.1383  142.4147  159.9629 H       1  UNL1        0.1537
      3 C         139.0954  143.3437  160.0187 C.ar    1  UNL1        0.1367
      4 C         140.1509  143.8077  160.9780 C.ar    1  UNL1        0.0685
      5 C         141.2938  144.6464  160.4877 C.ar    1  UNL1        0.1345
      6 N         141.3812  145.0209  159.0378 N.ar    1  UNL1       -0.1980
      7 N         142.3829  145.8305  158.2690 N.ar    1  UNL1       -0.1602
      8 C         141.9464  145.8668  156.8343 C.ar    1  UNL1        0.1339
      9 C         140.6750  145.0796  156.7165 C.ar    1  UNL1        0.1250
     10 C         140.3256  144.5568  158.0784 C.ar    1  UNL1        0.1776
     11 N         139.1828  143.7182  158.5688 N.ar    1  UNL1       -0.2109
     12 N         142.3493  145.1104  161.4472 N.pl3   1  UNL1       -0.3153
     13 H         142.5571  146.0696  161.5242 H       1  UNL1        0.1483
     14 C         143.0882  144.1130  162.2893 C.3     1  UNL1        0.1301
     15 C         142.7361  143.2485  163.4635 C.3     1  UNL1        0.1642
     16 O         144.1330  142.7023  163.4803 O.3     1  UNL1       -0.3501
     17 C         144.4851  143.5668  162.3061 C.3     1  UNL1        0.1642
     18 C         139.8907  144.8547  155.4579 C.1     1  UNL1        0.1052
     19 N         139.1063  144.6299  154.1992 N.1     1  UNL1       -0.1907
     20 C         138.6199  139.6805  163.2159 C.ar    1  UNL1        0.0476
     21 C         138.5224  140.3816  161.8935 C.ar    1  UNL1        0.0313
     22 C         138.0500  141.8039  161.8315 C.ar    1  UNL1        0.0784
     23 C         137.6753  142.5253  163.0922 C.ar    1  UNL1        0.1532
     24 F         137.2030  143.9476  163.0303 F       1  UNL1       -0.2029
     25 C         137.7729  141.8242  164.4148 C.ar    1  UNL1        0.0279
     26 C         138.2452  140.4019  164.4766 C.ar    1  UNL1       -0.0067
     27 C         141.5495  139.0821  163.4594 C.3     1  UNL1        0.0949
     28 C         140.5570  137.9590  163.3995 C.2     1  UNL1        0.2266
     29 O         141.0294  136.5366  163.4613 O.2     1  UNL1       -0.2748
     30 N         139.0922  138.2582  163.2778 N.am    1  UNL1       -0.2841
     31 H         138.4409  137.5210  163.2385 H       1  UNL1        0.1548
     32 C         138.3428  139.7009  165.7991 C.3     1  UNL1        0.0236
     33 C         137.8311  138.6750  166.7664 C.3     1  UNL1        0.0047
     34 C         139.0234  139.5126  167.1225 C.3     1  UNL1        0.0047
@<TRIPOS>BOND
     1    27    28    1
     2    28    29    2
     3    28    30   am
     4    30    20    1
     5    20    21   ar
     6    21    22   ar
     7    22     1    1
     8     1     3    1
     9     3     4   ar
    10     4     5   ar
    11     5    12    1
    12    12    14    1
    13    14    15    1
    14    15    16    1
    15    16    17    1
    16     5     6   ar
    17     6     7   ar
    18     7     8   ar
    19     8     9   ar
    20     9    18    1
    21    18    19    3
    22     9    10   ar
    23    10    11   ar
    24    22    23   ar
    25    23    24    1
    26    23    25   ar
    27    25    26   ar
    28    26    32    1
    29    32    33    1
    30    33    34    1
    31    26    20   ar
    32    34    32    1
    33    11     3   ar
    34    17    14    1
    35    10     6   ar
    36    30    31    1
    37     1     2    1
    38    12    13    1
@<TRIPOS>MOLECULE
*****
 34 38 0 0 0
SMALL
GASTEIGER

@<TRIPOS>ATOM
      1 N         138.1114  140.0072  165.4123 N.pl3   1  UNL1       -0.2960
      2 H         137.2617  139.7134  165.8135 H       1  UNL1        0.1537
      3 C         139.3658  140.0162  166.2350 C.ar    1  UNL1        0.1367
      4 C         140.5733  139.2579  165.7696 C.ar    1  UNL1        0.0685
      5 C         141.8277  139.2669  166.5922 C.ar    1  UNL1        0.1345
      6 N         141.8743  140.0343  167.8802 N.ar    1  UNL1       -0.1980
      7 N         142.9618  140.2262  168.8953 N.ar    1  UNL1       -0.1602
      8 C         142.4263  141.1032  169.9880 C.ar    1  UNL1        0.1339
      9 C         141.0078  141.4532  169.6483 C.ar    1  UNL1        0.1250
     10 C         140.6667  140.7926  168.3456 C.ar    1  UNL1        0.1776
     11 N         139.4124  140.7836  167.5230 N.ar    1  UNL1       -0.2109
     12 N         143.0353  138.5085  166.1267 N.pl3   1  UNL1       -0.3153
     13 H         143.4144  137.7941  166.6880 H       1  UNL1        0.1483
     14 C         143.6652  138.8388  164.8061 C.3     1  UNL1        0.1301
     15 C         144.9434  139.4948  164.3752 C.3     1  UNL1        0.1642
     16 O         144.5562  139.3058  162.9384 O.3     1  UNL1       -0.3501
     17 C         143.2780  138.6497  163.3693 C.3     1  UNL1        0.1642
     18 C         140.0915  142.3130  170.4675 C.1     1  UNL1        0.1052
     19 N         139.1751  143.1727  171.2867 N.1     1  UNL1       -0.1907
     20 C         138.0795  142.3407  162.2023 C.ar    1  UNL1        0.0476
     21 C         138.0392  141.9020  163.6362 C.ar    1  UNL1        0.0313
     22 C         138.1517  140.4459  163.9785 C.ar    1  UNL1        0.0784
     23 C         138.3047  139.4285  162.8869 C.ar    1  UNL1        0.1532
     24 F         138.4172  137.9724  163.2292 F       1  UNL1       -0.2029
     25 C         138.3450  139.8673  161.4530 C.ar    1  UNL1        0.0279
     26 C         138.2324  141.3233  161.1108 C.ar    1  UNL1       -0.0067
     27 C         140.5230  144.0810  162.2286 C.3     1  UNL1        0.0949
     28 C         139.1887  144.6669  161.8732 C.2     1  UNL1        0.2266
     29 O         139.0762  146.1230  161.5310 O.2     1  UNL1       -0.2748
     30 N         137.9669  143.7968  161.8601 N.am    1  UNL1       -0.2841
     31 H         137.0912  144.1814  161.6268 H       1  UNL1        0.1548
     32 C         138.2728  141.7620  159.6769 C.3     1  UNL1        0.0236
     33 C         138.6805  142.7612  158.6352 C.3     1  UNL1        0.0047
     34 C         137.9349  141.5226  158.2352 C.3     1  UNL1        0.0047
@<TRIPOS>BOND
     1    27    28    1
     2    28    29    2
     3    28    30   am
     4    30    20    1
     5    20    21   ar
     6    21    22   ar
     7    22     1    1
     8     1     3    1
     9     3     4   ar
    10     4     5   ar
    11     5    12    1
    12    12    14    1
    13    14    15    1
    14    15    16    1
    15    16    17    1
    16     5     6   ar
    17     6     7   ar
    18     7     8   ar
    19     8     9   ar
    20     9    18    1
    21    18    19    3
    22     9    10   ar
    23    10    11   ar
    24    22    23   ar
    25    23    24    1
    26    23    25   ar
    27    25    26   ar
    28    26    32    1
    29    32    33    1
    30    33    34    1
    31    26    20   ar
    32    34    32    1
    33    11     3   ar
    34    17    14    1
    35    10     6   ar
    36    30    31    1
    37     1     2    1
    38    12    13    1
@<TRIPOS>MOLECULE
*****
 34 38 0 0 0
SMALL
GASTEIGER

@<TRIPOS>ATOM
      1 N         143.6353  142.0291  165.4427 N.pl3   1  UNL1       -0.2960
      2 H         144.3938  142.3077  166.0052 H       1  UNL1        0.1537
      3 C         142.4363  141.3800  166.0681 C.ar    1  UNL1        0.1367
      4 C         141.5094  140.5509  165.2296 C.ar    1  UNL1        0.0685
      5 C         140.3104  139.9017  165.8550 C.ar    1  UNL1        0.1345
      6 N         140.0384  140.0819  167.3191 N.ar    1  UNL1       -0.1980
      7 N         138.9443  139.5681  168.2073 N.ar    1  UNL1       -0.1602
      8 C         139.1950  140.0798  169.5948 C.ar    1  UNL1        0.1339
      9 C         140.4441  140.9098  169.5642 C.ar    1  UNL1        0.1250
     10 C         140.9654  140.9111  168.1577 C.ar    1  UNL1        0.1776
     11 N         142.1643  141.5601  167.5322 N.ar    1  UNL1       -0.2109
     12 N         139.3835  139.0726  165.0163 N.pl3   1  UNL1       -0.3153
     13 H         138.4256  139.0274  165.2392 H       1  UNL1        0.1483
     14 C         139.9161  138.3122  163.8381 C.3     1  UNL1        0.1301
     15 C         140.9419  137.2347  163.6468 C.3     1  UNL1        0.1642
     16 O         140.6693  137.2369  162.1718 O.3     1  UNL1       -0.3501
     17 C         139.6435  138.3145  162.3631 C.3     1  UNL1        0.1642
     18 C         141.0632  141.6147  170.7346 C.1     1  UNL1        0.1052
     19 N         141.6822  142.3196  171.9050 N.1     1  UNL1       -0.1907
     20 C         142.9526  143.6128  161.8683 C.ar    1  UNL1        0.0476
     21 C         142.9093  143.3881  163.3507 C.ar    1  UNL1        0.0313
     22 C         143.6786  142.2538  163.9603 C.ar    1  UNL1        0.0784
     23 C         144.4912  141.3441  163.0873 C.ar    1  UNL1        0.1532
     24 F         145.2605  140.2097  163.6968 F       1  UNL1       -0.2029
     25 C         144.5345  141.5687  161.6048 C.ar    1  UNL1        0.0279
     26 C         143.7653  142.7030  160.9953 C.ar    1  UNL1       -0.0067
     27 C         140.0816  143.2294  161.0871 C.3     1  UNL1        0.0949
     28 C         140.7478  144.5554  160.8682 C.2     1  UNL1        0.2266
     29 O         139.9784  145.6897  160.2587 O.2     1  UNL1       -0.2748
     30 N         142.1833  144.7471  161.2588 N.am    1  UNL1       -0.2841
     31 H         142.6205  145.6174  161.1151 H       1  UNL1        0.1548
     32 C         143.8086  142.9276  159.5129 C.3     1  UNL1        0.0236
     33 C         144.5210  142.7966  158.1994 C.3     1  UNL1        0.0047
     34 C         143.1711  143.4478  158.2586 C.3     1  UNL1        0.0047
@<TRIPOS>BOND
     1    27    28    1
     2    28    29    2
     3    28    30   am
     4    30    20    1
     5    20    21   ar
     6    21    22   ar
     7    22     1    1
     8     1     3    1
     9     3     4   ar
    10     4     5   ar
    11     5    12    1
    12    12    14    1
    13    14    15    1
    14    15    16    1
    15    16    17    1
    16     5     6   ar
    17     6     7   ar
    18     7     8   ar
    19     8     9   ar
    20     9    18    1
    21    18    19    3
    22     9    10   ar
    23    10    11   ar
    24    22    23   ar
    25    23    24    1
    26    23    25   ar
    27    25    26   ar
    28    26    32    1
    29    32    33    1
    30    33    34    1
    31    26    20   ar
    32    34    32    1
    33    11     3   ar
    34    17    14    1
    35    10     6   ar
    36    30    31    1
    37     1     2    1
    38    12    13    1
@<TRIPOS>MOLECULE
*****
 34 38 0 0 0
SMALL
GASTEIGER

@<TRIPOS>ATOM
      1 N         139.9378  143.5944  165.3599 N.pl3   1  UNL1       -0.2960
      2 H         139.3658  144.1733  165.9138 H       1  UNL1        0.1537
      3 C         140.6905  142.4600  165.9898 C.ar    1  UNL1        0.1367
      4 C         141.4245  141.4764  165.1276 C.ar    1  UNL1        0.0685
      5 C         142.1772  140.3420  165.7575 C.ar    1  UNL1        0.1345
      6 N         142.1957  140.1913  167.2498 N.ar    1  UNL1       -0.1980
      7 N         142.8460  139.1818  168.1486 N.ar    1  UNL1       -0.1602
      8 C         142.5138  139.5415  169.5664 C.ar    1  UNL1        0.1339
      9 C         141.6582  140.7733  169.5439 C.ar    1  UNL1        0.1250
     10 C         141.4616  141.1750  168.1121 C.ar    1  UNL1        0.1776
     11 N         140.7090  142.3093  167.4821 N.ar    1  UNL1       -0.2109
     12 N         142.9112  139.3584  164.8951 N.pl3   1  UNL1       -0.3153
     13 H         143.8942  139.3837  164.8467 H       1  UNL1        0.1483
     14 C         142.1476  138.3362  164.1064 C.3     1  UNL1        0.1301
     15 C         142.0542  137.9695  162.6549 C.3     1  UNL1        0.1642
     16 O         141.0677  136.8907  162.9909 O.3     1  UNL1       -0.3501
     17 C         141.1611  137.2575  164.4424 C.3     1  UNL1        0.1642
     18 C         141.0977  141.4795  170.7427 C.1     1  UNL1        0.1052
     19 N         140.5372  142.1857  171.9414 N.1     1  UNL1       -0.1907
     20 C         139.2341  143.4262  161.4577 C.ar    1  UNL1        0.0476
     21 C         139.1151  143.1741  162.9315 C.ar    1  UNL1        0.0313
     22 C         140.0568  143.8465  163.8861 C.ar    1  UNL1        0.0784
     23 C         141.1176  144.7712  163.3666 C.ar    1  UNL1        0.1532
     24 F         142.0593  145.4437  164.3211 F       1  UNL1       -0.2029
     25 C         141.2366  145.0234  161.8927 C.ar    1  UNL1        0.0279
     26 C         140.2949  144.3510  160.9383 C.ar    1  UNL1       -0.0067
     27 C         139.9731  140.7918  160.2275 C.3     1  UNL1        0.0949
     28 C         138.6619  141.4366  159.8882 C.2     1  UNL1        0.2266
     29 O         137.7203  140.7640  158.9337 O.2     1  UNL1       -0.2748
     30 N         138.2924  142.7537  160.5033 N.am    1  UNL1       -0.2841
     31 H         137.4318  143.1769  160.2806 H       1  UNL1        0.1548
     32 C         140.4139  144.6031  159.4645 C.3     1  UNL1        0.0236
     33 C         140.3065  145.5337  158.2929 C.3     1  UNL1        0.0047
     34 C         140.7275  144.1093  158.0832 C.3     1  UNL1        0.0047
@<TRIPOS>BOND
     1    27    28    1
     2    28    29    2
     3    28    30   am
     4    30    20    1
     5    20    21   ar
     6    21    22   ar
     7    22     1    1
     8     1     3    1
     9     3     4   ar
    10     4     5   ar
    11     5    12    1
    12    12    14    1
    13    14    15    1
    14    15    16    1
    15    16    17    1
    16     5     6   ar
    17     6     7   ar
    18     7     8   ar
    19     8     9   ar
    20     9    18    1
    21    18    19    3
    22     9    10   ar
    23    10    11   ar
    24    22    23   ar
    25    23    24    1
    26    23    25   ar
    27    25    26   ar
    28    26    32    1
    29    32    33    1
    30    33    34    1
    31    26    20   ar
    32    34    32    1
    33    11     3   ar
    34    17    14    1
    35    10     6   ar
    36    30    31    1
    37     1     2    1
    38    12    13    1
@<TRIPOS>MOLECULE
*****
 34 38 0 0 0
SMALL
GASTEIGER

@<TRIPOS>ATOM
      1 N         139.1030  142.4717  165.3354 N.pl3   1  UNL1       -0.2960
      2 H         138.5746  143.1254  165.8479 H       1  UNL1        0.1537
      3 C         140.0769  141.5756  166.0416 C.ar    1  UNL1        0.1367
      4 C         140.9008  140.5977  165.2577 C.ar    1  UNL1        0.0685
      5 C         141.8747  139.7016  165.9639 C.ar    1  UNL1        0.1345
      6 N         142.0246  139.7836  167.4541 N.ar    1  UNL1       -0.1980
      7 N         142.8963  139.0344  168.4179 N.ar    1  UNL1       -0.1602
      8 C         142.6110  139.5493  169.7975 C.ar    1  UNL1        0.1339
      9 C         141.5630  140.6168  169.6864 C.ar    1  UNL1        0.1250
     10 C         141.2006  140.7616  168.2381 C.ar    1  UNL1        0.1776
     11 N         140.2268  141.6576  167.5319 N.ar    1  UNL1       -0.2109
     12 N         142.6987  138.7237  165.1798 N.pl3   1  UNL1       -0.3153
     13 H         143.6049  138.4882  165.4840 H       1  UNL1        0.1483
     14 C         142.1419  138.1045  163.9322 C.3     1  UNL1        0.1301
     15 C         140.9802  137.2082  163.6203 C.3     1  UNL1        0.1642
     16 O         141.3543  137.2287  162.1679 O.3     1  UNL1       -0.3501
     17 C         142.5160  138.1250  162.4798 C.3     1  UNL1        0.1642
     18 C         140.9799  141.4016  170.8240 C.1     1  UNL1        0.1052
     19 N         140.3968  142.1865  171.9615 N.1     1  UNL1       -0.1907
     20 C         139.2887  143.3604  161.4720 C.ar    1  UNL1        0.0476
     21 C         139.4575  143.4604  162.9591 C.ar    1  UNL1        0.0313
     22 C         138.9342  142.3716  163.8483 C.ar    1  UNL1        0.0784
     23 C         138.2421  141.1827  163.2504 C.ar    1  UNL1        0.1532
     24 F         137.7188  140.0939  164.1396 F       1  UNL1       -0.2029
     25 C         138.0733  141.0826  161.7632 C.ar    1  UNL1        0.0279
     26 C         138.5966  142.1714  160.8741 C.ar    1  UNL1       -0.0067
     27 C         142.1357  143.2883  160.5290 C.3     1  UNL1        0.0949
     28 C         141.2355  144.4131  160.1113 C.2     1  UNL1        0.2266
     29 O         141.7589  145.5019  159.2221 O.2     1  UNL1       -0.2748
     30 N         139.8120  144.4492  160.5828 N.am    1  UNL1       -0.2841
     31 H         139.2212  145.1875  160.3087 H       1  UNL1        0.1548
     32 C         138.4278  142.0713  159.3870 C.3     1  UNL1        0.0236
     33 C         138.4335  141.2509  158.1312 C.3     1  UNL1        0.0047
     34 C         138.1297  142.7184  158.0670 C.3     1  UNL1        0.0047
@<TRIPOS>BOND
     1    27    28    1
     2    28    29    2
     3    28    30   am
     4    30    20    1
     5    20    21   ar
     6    21    22   ar
     7    22     1    1
     8     1     3    1
     9     3     4   ar
    10     4     5   ar
    11     5    12    1
    12    12    14    1
    13    14    15    1
    14    15    16    1
    15    16    17    1
    16     5     6   ar
    17     6     7   ar
    18     7     8   ar
    19     8     9   ar
    20     9    18    1
    21    18    19    3
    22     9    10   ar
    23    10    11   ar
    24    22    23   ar
    25    23    24    1
    26    23    25   ar
    27    25    26   ar
    28    26    32    1
    29    32    33    1
    30    33    34    1
    31    26    20   ar
    32    34    32    1
    33    11     3   ar
    34    17    14    1
    35    10     6   ar
    36    30    31    1
    37     1     2    1
    38    12    13    1
@<TRIPOS>MOLECULE
*****
 34 38 0 0 0
SMALL
GASTEIGER

@<TRIPOS>ATOM
      1 N         142.9929  137.7999  162.3549 N.pl3   1  UNL1       -0.2960
      2 H         143.6797  137.0978  162.2874 H       1  UNL1        0.1537
      3 C         142.0534  138.0425  161.2110 C.ar    1  UNL1        0.1367
      4 C         140.6485  138.4955  161.4774 C.ar    1  UNL1        0.0685
      5 C         139.7090  138.7381  160.3334 C.ar    1  UNL1        0.1345
      6 N         140.1745  138.5278  158.9231 N.ar    1  UNL1       -0.1980
      7 N         139.4801  138.6855  157.6029 N.ar    1  UNL1       -0.1602
      8 C         140.4559  138.3299  156.5206 C.ar    1  UNL1        0.1339
      9 C         141.7534  137.9525  157.1719 C.ar    1  UNL1        0.1250
     10 C         141.5795  138.0748  158.6567 C.ar    1  UNL1        0.1776
     11 N         142.5189  137.8322  159.8007 N.ar    1  UNL1       -0.2109
     12 N         138.3040  139.1911  160.5999 N.pl3   1  UNL1       -0.3153
     13 H         137.5454  138.6907  160.2215 H       1  UNL1        0.1483
     14 C         138.0551  140.4065  161.4430 C.3     1  UNL1        0.1301
     15 C         138.1223  141.8875  161.2148 C.3     1  UNL1        0.1642
     16 O         137.7030  142.1255  162.6352 O.3     1  UNL1       -0.3501
     17 C         137.6357  140.6444  162.8633 C.3     1  UNL1        0.1642
     18 C         143.0050  137.5275  156.4628 C.1     1  UNL1        0.1052
     19 N         144.2565  137.1025  155.7536 N.1     1  UNL1       -0.1907
     20 C         143.4772  140.7792  164.9317 C.ar    1  UNL1        0.0476
     21 C         143.5842  139.9520  163.6850 C.ar    1  UNL1        0.0313
     22 C         142.8859  138.6271  163.6016 C.ar    1  UNL1        0.0784
     23 C         142.0805  138.1293  164.7651 C.ar    1  UNL1        0.1532
     24 F         141.3821  136.8044  164.6818 F       1  UNL1       -0.2029
     25 C         141.9735  138.9566  166.0119 C.ar    1  UNL1        0.0279
     26 C         142.6718  140.2814  166.0952 C.ar    1  UNL1       -0.0067
     27 C         142.0339  143.2878  164.1421 C.3     1  UNL1        0.0949
     28 C         143.4539  143.3583  164.6202 C.2     1  UNL1        0.2266
     29 O         144.1522  144.6833  164.7034 O.2     1  UNL1       -0.2748
     30 N         144.1756  142.1041  165.0150 N.am    1  UNL1       -0.2841
     31 H         145.1076  142.1504  165.3288 H       1  UNL1        0.1548
     32 C         142.5648  141.1086  167.3419 C.3     1  UNL1        0.0236
     33 C         141.9295  142.2337  168.1038 C.3     1  UNL1        0.0047
     34 C         143.0146  141.4161  168.7394 C.3     1  UNL1        0.0047
@<TRIPOS>BOND
     1    27    28    1
     2    28    29    2
     3    28    30   am
     4    30    20    1
     5    20    21   ar
     6    21    22   ar
     7    22     1    1
     8     1     3    1
     9     3     4   ar
    10     4     5   ar
    11     5    12    1
    12    12    14    1
    13    14    15    1
    14    15    16    1
    15    16    17    1
    16     5     6   ar
    17     6     7   ar
    18     7     8   ar
    19     8     9   ar
    20     9    18    1
    21    18    19    3
    22     9    10   ar
    23    10    11   ar
    24    22    23   ar
    25    23    24    1
    26    23    25   ar
    27    25    26   ar
    28    26    32    1
    29    32    33    1
    30    33    34    1
    31    26    20   ar
    32    34    32    1
    33    11     3   ar
    34    17    14    1
    35    10     6   ar
    36    30    31    1
    37     1     2    1
    38    12    13    1
@<TRIPOS>MOLECULE
*****
 34 38 0 0 0
SMALL
GASTEIGER

@<TRIPOS>ATOM
      1 N         139.5153  142.8480  164.1622 N.pl3   1  UNL1       -0.2960
      2 H         138.6296  143.2686  164.0741 H       1  UNL1        0.1537
      3 C         140.4990  142.9272  163.0325 C.ar    1  UNL1        0.1367
      4 C         140.6241  144.1907  162.2341 C.ar    1  UNL1        0.0685
      5 C         141.6078  144.2699  161.1044 C.ar    1  UNL1        0.1345
      6 N         142.4663  143.0853  160.7732 N.ar    1  UNL1       -0.1980
      7 N         143.5165  142.8688  159.7243 N.ar    1  UNL1       -0.1602
      8 C         144.0405  141.4714  159.8745 C.ar    1  UNL1        0.1339
      9 C         143.3141  140.8242  161.0162 C.ar    1  UNL1        0.1250
     10 C         142.3412  141.8217  161.5717 C.ar    1  UNL1        0.1776
     11 N         141.3576  141.7426  162.7013 N.ar    1  UNL1       -0.2109
     12 N         141.7329  145.5336  160.3059 N.pl3   1  UNL1       -0.3153
     13 H         142.0539  146.3584  160.7369 H       1  UNL1        0.1483
     14 C         141.3689  145.5405  158.8508 C.3     1  UNL1        0.1301
     15 C         142.1371  145.4613  157.5649 C.3     1  UNL1        0.1642
     16 O         140.8542  145.5502  156.7928 O.3     1  UNL1       -0.3501
     17 C         140.0859  145.6293  158.0788 C.3     1  UNL1        0.1642
     18 C         143.5238  139.4251  161.5150 C.1     1  UNL1        0.1052
     19 N         143.7335  138.0261  162.0137 N.1     1  UNL1       -0.1907
     20 C         141.2459  142.0098  167.6340 C.ar    1  UNL1        0.0476
     21 C         140.8799  142.7298  166.3700 C.ar    1  UNL1        0.0313
     22 C         139.8813  142.1280  165.4262 C.ar    1  UNL1        0.0784
     23 C         139.2487  140.8062  165.7465 C.ar    1  UNL1        0.1532
     24 F         138.2500  140.2044  164.8027 F       1  UNL1       -0.2029
     25 C         139.6146  140.0862  167.0105 C.ar    1  UNL1        0.0279
     26 C         140.6132  140.6879  167.9542 C.ar    1  UNL1       -0.0067
     27 C         140.3062  143.5000  170.0621 C.3     1  UNL1        0.0949
     28 C         141.7746  143.3567  169.7917 C.2     1  UNL1        0.2266
     29 O         142.7732  143.9585  170.7355 O.2     1  UNL1       -0.2748
     30 N         142.2445  142.6116  168.5777 N.am    1  UNL1       -0.2841
     31 H         143.2083  142.5176  168.4003 H       1  UNL1        0.1548
     32 C         140.9792  139.9679  169.2182 C.3     1  UNL1        0.0236
     33 C         140.6455  139.5546  170.6209 C.3     1  UNL1        0.0047
     34 C         141.9468  139.1342  170.0047 C.3     1  UNL1        0.0047
@<TRIPOS>BOND
     1    27    28    1
     2    28    29    2
     3    28    30   am
     4    30    20    1
     5    20    21   ar
     6    21    22   ar
     7    22     1    1
     8     1     3    1
     9     3     4   ar
    10     4     5   ar
    11     5    12    1
    12    12    14    1
    13    14    15    1
    14    15    16    1
    15    16    17    1
    16     5     6   ar
    17     6     7   ar
    18     7     8   ar
    19     8     9   ar
    20     9    18    1
    21    18    19    3
    22     9    10   ar
    23    10    11   ar
    24    22    23   ar
    25    23    24    1
    26    23    25   ar
    27    25    26   ar
    28    26    32    1
    29    32    33    1
    30    33    34    1
    31    26    20   ar
    32    34    32    1
    33    11     3   ar
    34    17    14    1
    35    10     6   ar
    36    30    31    1
    37     1     2    1
    38    12    13    1
@<TRIPOS>MOLECULE
*****
 34 38 0 0 0
SMALL
GASTEIGER

@<TRIPOS>ATOM
      1 N         139.6594  144.3354  162.6146 N.pl3   1  UNL1       -0.2960
      2 H         139.3134  145.2118  162.9000 H       1  UNL1        0.1537
      3 C         140.5173  144.2307  161.3885 C.ar    1  UNL1        0.1367
      4 C         141.7077  143.3181  161.3818 C.ar    1  UNL1        0.0685
      5 C         142.5656  143.2134  160.1557 C.ar    1  UNL1        0.1345
      6 N         142.2330  144.0214  158.9365 N.ar    1  UNL1       -0.1980
      7 N         142.8892  144.1255  157.5917 N.ar    1  UNL1       -0.1602
      8 C         142.1044  145.1025  156.7674 C.ar    1  UNL1        0.1339
      9 C         140.9631  145.6022  157.6027 C.ar    1  UNL1        0.1250
     10 C         141.0425  144.9340  158.9433 C.ar    1  UNL1        0.1776
     11 N         140.1847  145.0386  160.1693 N.ar    1  UNL1       -0.2109
     12 N         143.7560  142.3007  160.1490 N.pl3   1  UNL1       -0.3153
     13 H         144.2116  142.0922  159.3015 H       1  UNL1        0.1483
     14 C         144.2522  141.7058  161.4334 C.3     1  UNL1        0.1301
     15 C         144.1001  140.3790  162.1162 C.3     1  UNL1        0.1642
     16 O         144.9539  140.8644  163.2499 O.3     1  UNL1       -0.3501
     17 C         145.1060  142.1913  162.5671 C.3     1  UNL1        0.1642
     18 C         139.9247  146.5956  157.1728 C.1     1  UNL1        0.1052
     19 N         138.8863  147.5890  156.7430 N.1     1  UNL1       -0.1907
     20 C         139.7152  141.5949  165.4847 C.ar    1  UNL1        0.0476
     21 C         140.0458  142.8256  164.6935 C.ar    1  UNL1        0.0313
     22 C         139.3288  143.1047  163.4058 C.ar    1  UNL1        0.0784
     23 C         138.2810  142.1530  162.9094 C.ar    1  UNL1        0.1532
     24 F         137.5638  142.4320  161.6218 F       1  UNL1       -0.2029
     25 C         137.9503  140.9222  163.7007 C.ar    1  UNL1        0.0279
     26 C         138.6673  140.6432  164.9882 C.ar    1  UNL1       -0.0067
     27 C         142.2609  140.0079  165.4703 C.3     1  UNL1        0.0949
     28 C         141.7051  140.5224  166.7651 C.2     1  UNL1        0.2266
     29 O         142.4223  140.2433  168.0526 O.2     1  UNL1       -0.2748
     30 N         140.4323  141.3159  166.7723 N.am    1  UNL1       -0.2841
     31 H         140.0675  141.6536  167.6221 H       1  UNL1        0.1548
     32 C         138.3366  139.4125  165.7794 C.3     1  UNL1        0.0236
     33 C         137.7650  138.7744  167.0107 C.3     1  UNL1        0.0047
     34 C         138.3355  137.9190  165.9186 C.3     1  UNL1        0.0047
@<TRIPOS>BOND
     1    27    28    1
     2    28    29    2
     3    28    30   am
     4    30    20    1
     5    20    21   ar
     6    21    22   ar
     7    22     1    1
     8     1     3    1
     9     3     4   ar
    10     4     5   ar
    11     5    12    1
    12    12    14    1
    13    14    15    1
    14    15    16    1
    15    16    17    1
    16     5     6   ar
    17     6     7   ar
    18     7     8   ar
    19     8     9   ar
    20     9    18    1
    21    18    19    3
    22     9    10   ar
    23    10    11   ar
    24    22    23   ar
    25    23    24    1
    26    23    25   ar
    27    25    26   ar
    28    26    32    1
    29    32    33    1
    30    33    34    1
    31    26    20   ar
    32    34    32    1
    33    11     3   ar
    34    17    14    1
    35    10     6   ar
    36    30    31    1
    37     1     2    1
    38    12    13    1
@<TRIPOS>MOLECULE
*****
 34 38 0 0 0
SMALL
GASTEIGER

@<TRIPOS>ATOM
      1 N         144.1332  139.9696  165.0346 N.pl3   1  UNL1       -0.2960
      2 H         144.9638  139.6797  165.4766 H       1  UNL1        0.1537
      3 C         142.8202  139.8441  165.7490 C.ar    1  UNL1        0.1367
      4 C         142.7144  140.2240  167.1961 C.ar    1  UNL1        0.0685
      5 C         141.4013  140.0984  167.9105 C.ar    1  UNL1        0.1345
      6 N         140.1941  139.5931  167.1775 N.ar    1  UNL1       -0.1980
      7 N         138.7776  139.3640  167.6145 N.ar    1  UNL1       -0.1602
      8 C         138.0080  138.8426  166.4373 C.ar    1  UNL1        0.1339
      9 C         138.9488  138.7494  165.2728 C.ar    1  UNL1        0.1250
     10 C         140.3000  139.2132  165.7303 C.ar    1  UNL1        0.1776
     11 N         141.6130  139.3387  165.0160 N.ar    1  UNL1       -0.2109
     12 N         141.2956  140.4783  169.3578 N.pl3   1  UNL1       -0.3153
     13 H         141.2510  139.7782  170.0485 H       1  UNL1        0.1483
     14 C         141.2577  141.9249  169.7526 C.3     1  UNL1        0.1301
     15 C         140.1777  142.9544  169.9067 C.3     1  UNL1        0.1642
     16 O         141.2041  143.9707  170.3111 O.3     1  UNL1       -0.3501
     17 C         142.2841  142.9412  170.1570 C.3     1  UNL1        0.1642
     18 C         138.5998  138.2756  163.8931 C.1     1  UNL1        0.1052
     19 N         138.2508  137.8017  162.5134 N.1     1  UNL1       -0.1907
     20 C         144.1318  140.1919  161.0721 C.ar    1  UNL1        0.0476
     21 C         144.0843  139.6247  162.4599 C.ar    1  UNL1        0.0313
     22 C         144.1807  140.5369  163.6468 C.ar    1  UNL1        0.0784
     23 C         144.3246  142.0164  163.4458 C.ar    1  UNL1        0.1532
     24 F         144.4210  142.9286  164.6327 F       1  UNL1       -0.2029
     25 C         144.3721  142.5837  162.0580 C.ar    1  UNL1        0.0279
     26 C         144.2757  141.6715  160.8712 C.ar    1  UNL1       -0.0067
     27 C         141.4575  139.6009  159.8480 C.3     1  UNL1        0.0949
     28 C         142.6982  138.9842  159.2733 C.2     1  UNL1        0.2266
     29 O         142.6017  138.0719  158.0864 O.2     1  UNL1       -0.2748
     30 N         144.0354  139.2797  159.8853 N.am    1  UNL1       -0.2841
     31 H         144.8497  138.8749  159.5081 H       1  UNL1        0.1548
     32 C         144.3231  142.2387  159.4834 C.3     1  UNL1        0.0236
     33 C         143.6445  142.9326  158.3398 C.3     1  UNL1        0.0047
     34 C         145.0840  142.5274  158.2234 C.3     1  UNL1        0.0047
@<TRIPOS>BOND
     1    27    28    1
     2    28    29    2
     3    28    30   am
     4    30    20    1
     5    20    21   ar
     6    21    22   ar
     7    22     1    1
     8     1     3    1
     9     3     4   ar
    10     4     5   ar
    11     5    12    1
    12    12    14    1
    13    14    15    1
    14    15    16    1
    15    16    17    1
    16     5     6   ar
    17     6     7   ar
    18     7     8   ar
    19     8     9   ar
    20     9    18    1
    21    18    19    3
    22     9    10   ar
    23    10    11   ar
    24    22    23   ar
    25    23    24    1
    26    23    25   ar
    27    25    26   ar
    28    26    32    1
    29    32    33    1
    30    33    34    1
    31    26    20   ar
    32    34    32    1
    33    11     3   ar
    34    17    14    1
    35    10     6   ar
    36    30    31    1
    37     1     2    1
    38    12    13    1
