@<TRIPOS>MOLECULE
*****
 35 38 0 0 0
SMALL
GASTEIGER

@<TRIPOS>ATOM
      1 N         141.6666  144.3767  161.6609 N.3     1  UNL1       -0.2653
      2 C         142.4386  144.6883  162.9087 C.3     1  UNL1        0.1036
      3 C         143.3296  143.6473  163.5189 C.3     1  UNL1        0.1470
      4 C         144.2207  142.6063  164.1292 C.3     1  UNL1        0.1035
      5 N         144.3397  141.2538  163.4916 N.3     1  UNL1       -0.2673
      6 C         143.5677  140.9423  162.2437 C.3     1  UNL1        0.1035
      7 C         142.6767  141.9832  161.6335 C.3     1  UNL1        0.1470
      8 C         141.7857  143.0242  161.0233 C.3     1  UNL1        0.1036
      9 O         143.4487  142.2948  162.8813 O.3     1  UNL1       -0.3530
     10 C         140.7756  145.4178  161.0507 C.3     1  UNL1        0.1202
     11 C         139.7297  146.0935  161.8870 C.3     1  UNL1        0.2226
     12 O         138.4095  145.4218  162.1239 O.3     1  UNL1       -0.4740
     13 C         138.2324  141.5539  164.4169 C.ar    1  UNL1        0.0686
     14 C         138.8729  142.7624  165.0329 C.ar    1  UNL1        0.0134
     15 C         138.9319  144.0516  164.2686 C.ar    1  UNL1        0.0376
     16 C         138.3505  144.1325  162.8882 C.ar    1  UNL1        0.1387
     17 C         137.7100  142.9242  162.2722 C.ar    1  UNL1        0.0376
     18 C         137.6509  141.6348  163.0365 C.ar    1  UNL1        0.0134
     19 N         138.1143  138.9753  165.9455 N.1     1  UNL1       -0.1908
     20 C         138.1733  140.2646  165.1812 C.1     1  UNL1        0.1004
     21 C         145.2307  140.2128  164.1018 C.3     1  UNL1        0.0913
     22 C         144.6359  139.0914  164.9011 C.3     1  UNL1        0.1087
     23 N         143.1523  139.0254  165.1118 N.3     1  UNL1       -0.1780
     24 H         142.9211  138.0451  165.2727 H       1  UNL1        0.1488
     25 S         142.5170  139.8080  166.2226 S.O2    1  UNL1        0.0603
     26 O         141.6249  140.4927  165.2300 O.2     1  UNL1       -0.1530
     27 O         143.4091  139.1233  167.2152 O.2     1  UNL1       -0.1530
     28 C         141.8817  140.5907  167.3335 C.ar    1  UNL1        0.1226
     29 C         142.4445  141.9236  167.7290 C.ar    1  UNL1        0.0199
     30 C         141.8093  142.7063  168.8398 C.ar    1  UNL1        0.0021
     31 C         140.6112  142.1559  169.5551 C.ar    1  UNL1        0.0104
     32 C         140.0484  140.8230  169.1596 C.ar    1  UNL1        0.0698
     33 C         140.6836  140.0403  168.0488 C.ar    1  UNL1        0.0302
     34 C         138.8503  140.2727  169.8750 C.1     1  UNL1        0.1005
     35 N         137.6522  139.7224  170.5903 N.1     1  UNL1       -0.1908
@<TRIPOS>BOND
     1    19    20    3
     2    20    13    1
     3    13    14   ar
     4    14    15   ar
     5    15    16   ar
     6    16    12    1
     7    12    11    1
     8    11    10    1
     9    10     1    1
    10     1     2    1
    11     2     3    1
    12     3     4    1
    13     4     5    1
    14     5    21    1
    15    21    22    1
    16    22    23    1
    17    23    25    1
    18    25    26    2
    19    25    27    2
    20    25    28    1
    21    28    29   ar
    22    29    30   ar
    23    30    31   ar
    24    31    32   ar
    25    32    34    1
    26    34    35    3
    27    32    33   ar
    28     5     6    1
    29     6     7    1
    30     7     8    1
    31     7     9    1
    32    16    17   ar
    33    17    18   ar
    34    18    13   ar
    35     8     1    1
    36     9     3    1
    37    33    28   ar
    38    23    24    1
@<TRIPOS>MOLECULE
*****
 35 38 0 0 0
SMALL
GASTEIGER

@<TRIPOS>ATOM
      1 N         141.1557  138.1367  164.3133 N.3     1  UNL1       -0.2653
      2 C         142.2604  138.5367  165.2457 C.3     1  UNL1        0.1036
      3 C         143.2879  139.5370  164.8056 C.3     1  UNL1        0.1470
      4 C         144.3155  140.5373  164.3656 C.3     1  UNL1        0.1035
      5 N         144.2382  141.1376  162.9931 N.3     1  UNL1       -0.2673
      6 C         143.1333  140.7376  162.0607 C.3     1  UNL1        0.1035
      7 C         142.1059  139.7373  162.5008 C.3     1  UNL1        0.1470
      8 C         141.0784  138.7370  162.9408 C.3     1  UNL1        0.1036
      9 O         143.2106  140.1373  163.4332 O.3     1  UNL1       -0.3530
     10 C         140.1281  137.1364  164.7533 C.3     1  UNL1        0.1202
     11 C         138.8247  137.6042  165.3297 C.3     1  UNL1        0.2226
     12 O         138.4766  139.0632  165.3104 O.3     1  UNL1       -0.4740
     13 C         140.3399  141.8607  168.3024 C.ar    1  UNL1        0.0686
     14 C         139.6805  140.5961  168.7674 C.ar    1  UNL1        0.0134
     15 C         139.0594  139.6637  167.7700 C.ar    1  UNL1        0.0376
     16 C         139.0977  139.9957  166.3078 C.ar    1  UNL1        0.1387
     17 C         139.7572  141.2601  165.8428 C.ar    1  UNL1        0.0376
     18 C         140.3783  142.1927  166.8401 C.ar    1  UNL1        0.0134
     19 N         141.5821  143.7256  170.2971 N.1     1  UNL1       -0.1908
     20 C         140.9610  142.7931  169.2998 C.1     1  UNL1        0.1004
     21 C         145.2657  142.1378  162.5531 C.3     1  UNL1        0.0913
     22 C         144.8389  143.3894  161.8449 C.3     1  UNL1        0.1087
     23 N         144.0855  144.4521  162.5884 N.3     1  UNL1       -0.1780
     24 H         144.1888  145.3148  162.0541 H       1  UNL1        0.1488
     25 S         142.6197  144.2828  162.8580 S.O2    1  UNL1        0.0603
     26 O         142.3307  144.4570  161.3965 O.2     1  UNL1       -0.1530
     27 O         142.9087  144.1086  164.3196 O.2     1  UNL1       -0.1530
     28 C         141.1538  144.1134  163.1278 C.ar    1  UNL1        0.1226
     29 C         140.4635  145.0117  164.1109 C.ar    1  UNL1        0.0199
     30 C         138.9977  144.8424  164.3806 C.ar    1  UNL1        0.0021
     31 C         138.2223  143.7748  163.6672 C.ar    1  UNL1        0.0104
     32 C         138.9127  142.8765  162.6841 C.ar    1  UNL1        0.0698
     33 C         140.3784  143.0458  162.4144 C.ar    1  UNL1        0.0302
     34 C         138.1372  141.8089  161.9707 C.1     1  UNL1        0.1005
     35 N         137.3617  140.7413  161.2573 N.1     1  UNL1       -0.1908
@<TRIPOS>BOND
     1    19    20    3
     2    20    13    1
     3    13    14   ar
     4    14    15   ar
     5    15    16   ar
     6    16    12    1
     7    12    11    1
     8    11    10    1
     9    10     1    1
    10     1     2    1
    11     2     3    1
    12     3     4    1
    13     4     5    1
    14     5    21    1
    15    21    22    1
    16    22    23    1
    17    23    25    1
    18    25    26    2
    19    25    27    2
    20    25    28    1
    21    28    29   ar
    22    29    30   ar
    23    30    31   ar
    24    31    32   ar
    25    32    34    1
    26    34    35    3
    27    32    33   ar
    28     5     6    1
    29     6     7    1
    30     7     8    1
    31     7     9    1
    32    16    17   ar
    33    17    18   ar
    34    18    13   ar
    35     8     1    1
    36     9     3    1
    37    33    28   ar
    38    23    24    1
@<TRIPOS>MOLECULE
*****
 35 38 0 0 0
SMALL
GASTEIGER

@<TRIPOS>ATOM
      1 N         141.1020  144.1978  160.6393 N.3     1  UNL1       -0.2653
      2 C         142.4716  144.0848  161.2406 C.3     1  UNL1        0.1036
      3 C         143.1852  142.7654  161.2379 C.3     1  UNL1        0.1470
      4 C         143.8990  141.4461  161.2353 C.3     1  UNL1        0.1035
      5 N         143.2431  140.2398  160.6313 N.3     1  UNL1       -0.2673
      6 C         141.8735  140.3529  160.0300 C.3     1  UNL1        0.1035
      7 C         141.1598  141.6722  160.0327 C.3     1  UNL1        0.1470
      8 C         140.4462  142.9915  160.0354 C.3     1  UNL1        0.1036
      9 O         142.5294  141.5592  160.6340 O.3     1  UNL1       -0.3530
     10 C         140.3883  145.5172  160.6420 C.3     1  UNL1        0.1202
     11 C         139.7478  146.0209  161.9013 C.3     1  UNL1        0.2226
     12 O         138.4333  145.4561  162.3520 O.3     1  UNL1       -0.4740
     13 C         138.3066  141.5387  164.5628 C.ar    1  UNL1        0.0686
     14 C         137.6010  141.6804  163.2467 C.ar    1  UNL1        0.0134
     15 C         137.6432  142.9862  162.5098 C.ar    1  UNL1        0.0376
     16 C         138.3911  144.1504  163.0889 C.ar    1  UNL1        0.1387
     17 C         139.0967  144.0088  164.4049 C.ar    1  UNL1        0.0376
     18 C         139.0545  142.7029  165.1419 C.ar    1  UNL1        0.0134
     19 N         138.2222  138.9272  166.0367 N.1     1  UNL1       -0.1908
     20 C         138.2644  140.2330  165.2998 C.1     1  UNL1        0.1004
     21 C         143.9568  138.9205  160.6287 C.3     1  UNL1        0.0913
     22 C         143.8848  138.0264  161.8310 C.3     1  UNL1        0.1087
     23 N         142.6521  138.0165  162.6855 N.3     1  UNL1       -0.1780
     24 H         142.5857  137.0849  163.0957 H       1  UNL1        0.1488
     25 S         142.5127  138.9967  163.8123 S.O2    1  UNL1        0.0603
     26 O         141.0765  139.2189  163.4414 O.2     1  UNL1       -0.1530
     27 O         143.9490  138.7745  164.1832 O.2     1  UNL1       -0.1530
     28 C         142.3734  139.9770  164.9391 C.ar    1  UNL1        0.1226
     29 C         142.8845  141.3784  164.7815 C.ar    1  UNL1        0.0199
     30 C         142.7452  142.3587  165.9083 C.ar    1  UNL1        0.0021
     31 C         142.0949  141.9375  167.1926 C.ar    1  UNL1        0.0104
     32 C         141.5838  140.5361  167.3502 C.ar    1  UNL1        0.0698
     33 C         141.7231  139.5559  166.2235 C.ar    1  UNL1        0.0302
     34 C         140.9334  140.1150  168.6347 C.1     1  UNL1        0.1005
     35 N         140.2830  139.6939  169.9190 N.1     1  UNL1       -0.1908
@<TRIPOS>BOND
     1    19    20    3
     2    20    13    1
     3    13    14   ar
     4    14    15   ar
     5    15    16   ar
     6    16    12    1
     7    12    11    1
     8    11    10    1
     9    10     1    1
    10     1     2    1
    11     2     3    1
    12     3     4    1
    13     4     5    1
    14     5    21    1
    15    21    22    1
    16    22    23    1
    17    23    25    1
    18    25    26    2
    19    25    27    2
    20    25    28    1
    21    28    29   ar
    22    29    30   ar
    23    30    31   ar
    24    31    32   ar
    25    32    34    1
    26    34    35    3
    27    32    33   ar
    28     5     6    1
    29     6     7    1
    30     7     8    1
    31     7     9    1
    32    16    17   ar
    33    17    18   ar
    34    18    13   ar
    35     8     1    1
    36     9     3    1
    37    33    28   ar
    38    23    24    1
@<TRIPOS>MOLECULE
*****
 35 38 0 0 0
SMALL
GASTEIGER

@<TRIPOS>ATOM
      1 N         143.5372  140.6259  162.0516 N.3     1  UNL1       -0.2653
      2 C         143.9661  141.9758  162.5452 C.3     1  UNL1        0.1036
      3 C         143.1905  143.1986  162.1540 C.3     1  UNL1        0.1470
      4 C         142.4149  144.4216  161.7628 C.3     1  UNL1        0.1035
      5 N         141.2104  144.2945  160.8779 N.3     1  UNL1       -0.2673
      6 C         140.7815  142.9445  160.3843 C.3     1  UNL1        0.1035
      7 C         141.5570  141.7216  160.7755 C.3     1  UNL1        0.1470
      8 C         142.3326  140.4988  161.1668 C.3     1  UNL1        0.1036
      9 O         141.9860  143.0716  161.2691 O.3     1  UNL1       -0.3530
     10 C         144.3128  139.4030  162.4429 C.3     1  UNL1        0.1202
     11 C         144.4970  139.0636  163.8923 C.3     1  UNL1        0.2226
     12 O         143.3011  138.9126  164.7851 O.3     1  UNL1       -0.4740
     13 C         142.7734  141.6459  168.3208 C.ar    1  UNL1        0.0686
     14 C         143.1537  142.2125  166.9849 C.ar    1  UNL1        0.0134
     15 C         143.3296  141.3014  165.8064 C.ar    1  UNL1        0.0376
     16 C         143.1252  139.8237  165.9636 C.ar    1  UNL1        0.1387
     17 C         142.7449  139.2571  167.2994 C.ar    1  UNL1        0.0376
     18 C         142.5690  140.1682  168.4780 C.ar    1  UNL1        0.0134
     19 N         142.4217  143.4681  170.6778 N.1     1  UNL1       -0.1908
     20 C         142.5976  142.5570  169.4993 C.1     1  UNL1        0.1004
     21 C         140.4348  145.5173  160.4866 C.3     1  UNL1        0.0913
     22 C         139.5951  146.2305  161.5047 C.3     1  UNL1        0.1087
     23 N         138.4524  145.5187  162.1660 N.3     1  UNL1       -0.1780
     24 H         137.8148  145.2317  161.4233 H       1  UNL1        0.1488
     25 S         138.7114  144.3043  163.0075 S.O2    1  UNL1        0.0603
     26 O         139.6325  145.1050  163.8795 O.2     1  UNL1       -0.1530
     27 O         137.7903  143.5036  162.1355 O.2     1  UNL1       -0.1530
     28 C         138.9704  143.0898  163.8490 C.ar    1  UNL1        0.1226
     29 C         139.4246  143.2450  165.2701 C.ar    1  UNL1        0.0199
     30 C         139.6836  142.0307  166.1116 C.ar    1  UNL1        0.0021
     31 C         139.4884  140.6611  165.5320 C.ar    1  UNL1        0.0104
     32 C         139.0342  140.5058  164.1109 C.ar    1  UNL1        0.0698
     33 C         138.7752  141.7202  163.2694 C.ar    1  UNL1        0.0302
     34 C         138.8390  139.1361  163.5312 C.1     1  UNL1        0.1005
     35 N         138.6439  137.7665  162.9517 N.1     1  UNL1       -0.1908
@<TRIPOS>BOND
     1    19    20    3
     2    20    13    1
     3    13    14   ar
     4    14    15   ar
     5    15    16   ar
     6    16    12    1
     7    12    11    1
     8    11    10    1
     9    10     1    1
    10     1     2    1
    11     2     3    1
    12     3     4    1
    13     4     5    1
    14     5    21    1
    15    21    22    1
    16    22    23    1
    17    23    25    1
    18    25    26    2
    19    25    27    2
    20    25    28    1
    21    28    29   ar
    22    29    30   ar
    23    30    31   ar
    24    31    32   ar
    25    32    34    1
    26    34    35    3
    27    32    33   ar
    28     5     6    1
    29     6     7    1
    30     7     8    1
    31     7     9    1
    32    16    17   ar
    33    17    18   ar
    34    18    13   ar
    35     8     1    1
    36     9     3    1
    37    33    28   ar
    38    23    24    1
@<TRIPOS>MOLECULE
*****
 35 38 0 0 0
SMALL
GASTEIGER

@<TRIPOS>ATOM
      1 N         138.8030  139.7789  163.4980 N.3     1  UNL1       -0.2653
      2 C         138.1190  141.1101  163.5986 C.3     1  UNL1        0.1036
      3 C         138.3846  142.1694  162.5704 C.3     1  UNL1        0.1470
      4 C         138.6502  143.2287  161.5421 C.3     1  UNL1        0.1035
      5 N         139.5998  142.9569  160.4132 N.3     1  UNL1       -0.2673
      6 C         140.2838  141.6257  160.3126 C.3     1  UNL1        0.1035
      7 C         140.0182  140.5664  161.3409 C.3     1  UNL1        0.1470
      8 C         139.7526  139.5071  162.3691 C.3     1  UNL1        0.1036
      9 O         139.3342  141.8975  161.4415 O.3     1  UNL1       -0.3530
     10 C         138.5374  138.7196  164.5262 C.3     1  UNL1        0.1202
     11 C         139.6710  138.1508  165.3272 C.3     1  UNL1        0.2226
     12 O         140.8626  139.0028  165.6504 O.3     1  UNL1       -0.4740
     13 C         140.4451  142.4728  168.4850 C.ar    1  UNL1        0.0686
     14 C         140.0898  141.0875  168.9377 C.ar    1  UNL1        0.0134
     15 C         140.2290  139.9309  167.9929 C.ar    1  UNL1        0.0376
     16 C         140.7234  140.1594  166.5953 C.ar    1  UNL1        0.1387
     17 C         141.0787  141.5446  166.1425 C.ar    1  UNL1        0.0376
     18 C         140.9396  142.7013  167.0874 C.ar    1  UNL1        0.0134
     19 N         140.1669  144.7860  170.3748 N.1     1  UNL1       -0.1908
     20 C         140.3060  143.6294  169.4299 C.1     1  UNL1        0.1004
     21 C         139.8654  144.0162  159.3850 C.3     1  UNL1        0.0913
     22 C         141.0805  144.8879  159.5028 C.3     1  UNL1        0.1087
     23 N         141.4250  145.5206  160.8184 N.3     1  UNL1       -0.1780
     24 H         140.5458  145.8188  161.2409 H       1  UNL1        0.1488
     25 S         142.1604  144.7311  161.8605 S.O2    1  UNL1        0.0603
     26 O         141.3473  145.3912  162.9343 O.2     1  UNL1       -0.1530
     27 O         142.9735  144.0711  160.7867 O.2     1  UNL1       -0.1530
     28 C         142.8958  143.9416  162.9026 C.ar    1  UNL1        0.1226
     29 C         143.5868  144.6490  164.0305 C.ar    1  UNL1        0.0199
     30 C         144.3222  143.8596  165.0725 C.ar    1  UNL1        0.0021
     31 C         144.3667  142.3628  164.9867 C.ar    1  UNL1        0.0104
     32 C         143.6757  141.6553  163.8588 C.ar    1  UNL1        0.0698
     33 C         142.9403  142.4448  162.8167 C.ar    1  UNL1        0.0302
     34 C         143.7202  140.1584  163.7730 C.1     1  UNL1        0.1005
     35 N         143.7646  138.6615  163.6872 N.1     1  UNL1       -0.1908
@<TRIPOS>BOND
     1    19    20    3
     2    20    13    1
     3    13    14   ar
     4    14    15   ar
     5    15    16   ar
     6    16    12    1
     7    12    11    1
     8    11    10    1
     9    10     1    1
    10     1     2    1
    11     2     3    1
    12     3     4    1
    13     4     5    1
    14     5    21    1
    15    21    22    1
    16    22    23    1
    17    23    25    1
    18    25    26    2
    19    25    27    2
    20    25    28    1
    21    28    29   ar
    22    29    30   ar
    23    30    31   ar
    24    31    32   ar
    25    32    34    1
    26    34    35    3
    27    32    33   ar
    28     5     6    1
    29     6     7    1
    30     7     8    1
    31     7     9    1
    32    16    17   ar
    33    17    18   ar
    34    18    13   ar
    35     8     1    1
    36     9     3    1
    37    33    28   ar
    38    23    24    1
@<TRIPOS>MOLECULE
*****
 35 38 0 0 0
SMALL
GASTEIGER

@<TRIPOS>ATOM
      1 N         140.9742  144.1948  160.2804 N.3     1  UNL1       -0.2653
      2 C         142.3751  143.9973  160.7787 C.3     1  UNL1        0.1036
      3 C         143.0073  142.6383  160.7204 C.3     1  UNL1        0.1470
      4 C         143.6395  141.2792  160.6621 C.3     1  UNL1        0.1035
      5 N         142.8708  140.1177  160.1054 N.3     1  UNL1       -0.2673
      6 C         141.4698  140.3153  159.6070 C.3     1  UNL1        0.1035
      7 C         140.8377  141.6743  159.6653 C.3     1  UNL1        0.1470
      8 C         140.2055  143.0333  159.7236 C.3     1  UNL1        0.1036
      9 O         142.2386  141.4768  160.1637 O.3     1  UNL1       -0.3530
     10 C         140.3420  145.5538  160.3387 C.3     1  UNL1        0.1202
     11 C         139.6598  146.0104  161.5941 C.3     1  UNL1        0.2226
     12 O         138.7927  145.0595  162.3648 O.3     1  UNL1       -0.4740
     13 C         140.3335  143.1715  166.1478 C.ar    1  UNL1        0.0686
     14 C         139.2431  144.1996  166.2128 C.ar    1  UNL1        0.0134
     15 C         138.7295  144.8289  164.9519 C.ar    1  UNL1        0.0376
     16 C         139.3062  144.4301  163.6258 C.ar    1  UNL1        0.1387
     17 C         140.3965  143.4021  163.5608 C.ar    1  UNL1        0.0376
     18 C         140.9102  142.7727  164.8218 C.ar    1  UNL1        0.0134
     19 N         141.3606  141.9128  168.6698 N.1     1  UNL1       -0.1908
     20 C         140.8470  142.5421  167.4088 C.1     1  UNL1        0.1004
     21 C         143.5029  138.7587  160.0470 C.3     1  UNL1        0.0913
     22 C         142.8441  137.5952  160.7271 C.3     1  UNL1        0.1087
     23 N         142.7104  137.5772  162.2209 N.3     1  UNL1       -0.1780
     24 H         143.5558  138.0060  162.5975 H       1  UNL1        0.1488
     25 S         141.5484  138.2609  162.8782 S.O2    1  UNL1        0.0603
     26 O         142.4794  138.8851  163.8749 O.2     1  UNL1       -0.1530
     27 O         140.6173  137.6368  161.8815 O.2     1  UNL1       -0.1530
     28 C         140.3862  138.9448  163.5355 C.ar    1  UNL1        0.1226
     29 C         139.3769  139.6765  162.7013 C.ar    1  UNL1        0.0199
     30 C         138.2148  140.3603  163.3584 C.ar    1  UNL1        0.0021
     31 C         138.0621  140.3124  164.8498 C.ar    1  UNL1        0.0104
     32 C         139.0713  139.5806  165.6840 C.ar    1  UNL1        0.0698
     33 C         140.2334  138.8968  165.0269 C.ar    1  UNL1        0.0302
     34 C         138.9185  139.5327  167.1755 C.1     1  UNL1        0.1005
     35 N         138.7656  139.4848  168.6669 N.1     1  UNL1       -0.1908
@<TRIPOS>BOND
     1    19    20    3
     2    20    13    1
     3    13    14   ar
     4    14    15   ar
     5    15    16   ar
     6    16    12    1
     7    12    11    1
     8    11    10    1
     9    10     1    1
    10     1     2    1
    11     2     3    1
    12     3     4    1
    13     4     5    1
    14     5    21    1
    15    21    22    1
    16    22    23    1
    17    23    25    1
    18    25    26    2
    19    25    27    2
    20    25    28    1
    21    28    29   ar
    22    29    30   ar
    23    30    31   ar
    24    31    32   ar
    25    32    34    1
    26    34    35    3
    27    32    33   ar
    28     5     6    1
    29     6     7    1
    30     7     8    1
    31     7     9    1
    32    16    17   ar
    33    17    18   ar
    34    18    13   ar
    35     8     1    1
    36     9     3    1
    37    33    28   ar
    38    23    24    1
@<TRIPOS>MOLECULE
*****
 35 38 0 0 0
SMALL
GASTEIGER

@<TRIPOS>ATOM
      1 N         139.1859  137.8676  164.5137 N.3     1  UNL1       -0.2653
      2 C         138.5597  138.2815  163.2151 C.3     1  UNL1        0.1036
      3 C         139.3896  138.3388  161.9670 C.3     1  UNL1        0.1470
      4 C         140.2195  138.3962  160.7187 C.3     1  UNL1        0.1035
      5 N         141.6756  138.0396  160.7692 N.3     1  UNL1       -0.2673
      6 C         142.3018  137.6257  162.0680 C.3     1  UNL1        0.1035
      7 C         141.4719  137.5684  163.3161 C.3     1  UNL1        0.1470
      8 C         140.6420  137.5110  164.5642 C.3     1  UNL1        0.1036
      9 O         140.8457  137.9822  162.0175 O.3     1  UNL1       -0.3530
     10 C         138.3559  137.8103  165.7620 C.3     1  UNL1        0.1202
     11 C         138.0646  139.0670  166.5273 C.3     1  UNL1        0.2226
     12 O         138.4613  139.1757  167.9698 O.3     1  UNL1       -0.4740
     13 C         142.1735  141.4455  169.1175 C.ar    1  UNL1        0.0686
     14 C         142.1296  140.6832  167.8263 C.ar    1  UNL1        0.0134
     15 C         140.8922  139.9267  167.4438 C.ar    1  UNL1        0.0376
     16 C         139.6987  139.9323  168.3524 C.ar    1  UNL1        0.1387
     17 C         139.7426  140.6945  169.6435 C.ar    1  UNL1        0.0376
     18 C         140.9800  141.4512  170.0261 C.ar    1  UNL1        0.0134
     19 N         144.6483  142.9587  169.8826 N.1     1  UNL1       -0.1908
     20 C         143.4109  142.2021  169.5000 C.1     1  UNL1        0.1004
     21 C         142.5055  138.0969  159.5211 C.3     1  UNL1        0.0913
     22 C         142.9958  139.4178  159.0063 C.3     1  UNL1        0.1087
     23 N         143.9396  140.2409  159.8319 N.3     1  UNL1       -0.1780
     24 H         144.2676  141.0002  159.2349 H       1  UNL1        0.1488
     25 S         143.4668  140.8682  161.1097 S.O2    1  UNL1        0.0603
     26 O         144.6016  140.2214  161.8471 O.2     1  UNL1       -0.1530
     27 O         142.3320  141.5150  160.3724 O.2     1  UNL1       -0.1530
     28 C         142.9939  141.4954  162.3876 C.ar    1  UNL1        0.1226
     29 C         141.5500  141.3972  162.7819 C.ar    1  UNL1        0.0199
     30 C         141.0770  142.0244  164.0597 C.ar    1  UNL1        0.0021
     31 C         142.0480  142.7499  164.9433 C.ar    1  UNL1        0.0104
     32 C         143.4920  142.8482  164.5490 C.ar    1  UNL1        0.0698
     33 C         143.9649  142.2210  163.2712 C.ar    1  UNL1        0.0302
     34 C         144.4630  143.5738  165.4327 C.1     1  UNL1        0.1005
     35 N         145.4339  144.2994  166.3163 N.1     1  UNL1       -0.1908
@<TRIPOS>BOND
     1    19    20    3
     2    20    13    1
     3    13    14   ar
     4    14    15   ar
     5    15    16   ar
     6    16    12    1
     7    12    11    1
     8    11    10    1
     9    10     1    1
    10     1     2    1
    11     2     3    1
    12     3     4    1
    13     4     5    1
    14     5    21    1
    15    21    22    1
    16    22    23    1
    17    23    25    1
    18    25    26    2
    19    25    27    2
    20    25    28    1
    21    28    29   ar
    22    29    30   ar
    23    30    31   ar
    24    31    32   ar
    25    32    34    1
    26    34    35    3
    27    32    33   ar
    28     5     6    1
    29     6     7    1
    30     7     8    1
    31     7     9    1
    32    16    17   ar
    33    17    18   ar
    34    18    13   ar
    35     8     1    1
    36     9     3    1
    37    33    28   ar
    38    23    24    1
@<TRIPOS>MOLECULE
*****
 35 38 0 0 0
SMALL
GASTEIGER

@<TRIPOS>ATOM
      1 N         142.7885  140.4426  160.5201 N.3     1  UNL1       -0.2653
      2 C         143.4254  141.5342  161.3280 C.3     1  UNL1        0.1036
      3 C         142.5935  142.6746  161.8352 C.3     1  UNL1        0.1470
      4 C         141.7616  143.8151  162.3425 C.3     1  UNL1        0.1035
      5 N         140.2929  143.8640  162.0419 N.3     1  UNL1       -0.2673
      6 C         139.6560  142.7723  161.2339 C.3     1  UNL1        0.1035
      7 C         140.4879  141.6319  160.7266 C.3     1  UNL1        0.1470
      8 C         141.3198  140.4914  160.2194 C.3     1  UNL1        0.1036
      9 O         141.1248  142.7234  161.5346 O.3     1  UNL1       -0.3530
     10 C         143.6204  139.3021  160.0128 C.3     1  UNL1        0.1202
     11 C         143.5862  137.9778  160.7163 C.3     1  UNL1        0.2226
     12 O         143.7227  137.9177  162.2090 O.3     1  UNL1       -0.4740
     13 C         140.0774  138.3042  164.8191 C.ar    1  UNL1        0.0686
     14 C         139.9755  137.6287  163.4836 C.ar    1  UNL1        0.0134
     15 C         141.1906  137.4999  162.6136 C.ar    1  UNL1        0.0376
     16 C         142.5076  138.0466  163.0790 C.ar    1  UNL1        0.1387
     17 C         142.6096  138.7221  164.4143 C.ar    1  UNL1        0.0376
     18 C         141.3945  138.8509  165.2844 C.ar    1  UNL1        0.0134
     19 N         137.6473  138.5619  166.5591 N.1     1  UNL1       -0.1908
     20 C         138.8624  138.4331  165.6891 C.1     1  UNL1        0.1004
     21 C         139.4610  145.0044  162.5491 C.3     1  UNL1        0.0913
     22 C         138.4543  144.7728  163.6368 C.3     1  UNL1        0.1087
     23 N         138.4290  143.4639  164.3691 N.3     1  UNL1       -0.1780
     24 H         138.4399  142.7300  163.6608 H       1  UNL1        0.1488
     25 S         139.5130  143.1334  165.3518 S.O2    1  UNL1        0.0603
     26 O         139.2815  144.4421  166.0472 O.2     1  UNL1       -0.1530
     27 O         139.7444  141.8247  164.6563 O.2     1  UNL1       -0.1530
     28 C         140.5970  142.8028  166.3345 C.ar    1  UNL1        0.1226
     29 C         141.9946  142.5493  165.8524 C.ar    1  UNL1        0.0199
     30 C         143.0786  142.2188  166.8351 C.ar    1  UNL1        0.0021
     31 C         142.7649  142.1417  168.2999 C.ar    1  UNL1        0.0104
     32 C         141.3673  142.3952  168.7820 C.ar    1  UNL1        0.0698
     33 C         140.2833  142.7257  167.7993 C.ar    1  UNL1        0.0302
     34 C         141.0537  142.3180  170.2469 C.1     1  UNL1        0.1005
     35 N         140.7401  142.2409  171.7116 N.1     1  UNL1       -0.1908
@<TRIPOS>BOND
     1    19    20    3
     2    20    13    1
     3    13    14   ar
     4    14    15   ar
     5    15    16   ar
     6    16    12    1
     7    12    11    1
     8    11    10    1
     9    10     1    1
    10     1     2    1
    11     2     3    1
    12     3     4    1
    13     4     5    1
    14     5    21    1
    15    21    22    1
    16    22    23    1
    17    23    25    1
    18    25    26    2
    19    25    27    2
    20    25    28    1
    21    28    29   ar
    22    29    30   ar
    23    30    31   ar
    24    31    32   ar
    25    32    34    1
    26    34    35    3
    27    32    33   ar
    28     5     6    1
    29     6     7    1
    30     7     8    1
    31     7     9    1
    32    16    17   ar
    33    17    18   ar
    34    18    13   ar
    35     8     1    1
    36     9     3    1
    37    33    28   ar
    38    23    24    1
@<TRIPOS>MOLECULE
*****
 35 38 0 0 0
SMALL
GASTEIGER

@<TRIPOS>ATOM
      1 N         139.7001  137.7383  164.0336 N.3     1  UNL1       -0.2653
      2 C         141.1676  137.7839  164.3404 C.3     1  UNL1        0.1036
      3 C         142.1484  138.1397  163.2627 C.3     1  UNL1        0.1470
      4 C         143.1292  138.4956  162.1849 C.3     1  UNL1        0.1035
      5 N         142.6423  138.8059  160.8005 N.3     1  UNL1       -0.2673
      6 C         141.1747  138.7602  160.4937 C.3     1  UNL1        0.1035
      7 C         140.1940  138.4043  161.5715 C.3     1  UNL1        0.1470
      8 C         139.2133  138.0485  162.6492 C.3     1  UNL1        0.1036
      9 O         141.6615  138.4500  161.8782 O.3     1  UNL1       -0.3530
     10 C         138.7193  137.3824  165.1114 C.3     1  UNL1        0.1202
     11 C         138.2603  138.4288  166.0831 C.3     1  UNL1        0.2226
     12 O         138.5927  139.8719  165.8438 O.3     1  UNL1       -0.4740
     13 C         141.2099  142.0907  168.7553 C.ar    1  UNL1        0.0686
     14 C         140.4321  140.8912  169.2094 C.ar    1  UNL1        0.0134
     15 C         139.5597  140.1516  168.2389 C.ar    1  UNL1        0.0376
     16 C         139.4651  140.6115  166.8143 C.ar    1  UNL1        0.1387
     17 C         140.2428  141.8110  166.3602 C.ar    1  UNL1        0.0376
     18 C         141.1152  142.5506  167.3307 C.ar    1  UNL1        0.0134
     19 N         142.9547  143.5699  170.6962 N.1     1  UNL1       -0.1908
     20 C         142.0823  142.8303  169.7257 C.1     1  UNL1        0.1004
     21 C         143.6231  139.1617  159.7228 C.3     1  UNL1        0.0913
     22 C         143.6130  140.5370  159.1238 C.3     1  UNL1        0.1087
     23 N         144.3594  141.6523  159.7937 N.3     1  UNL1       -0.1780
     24 H         144.7051  142.2621  159.0527 H       1  UNL1        0.1488
     25 S         143.6604  142.5318  160.7875 S.O2    1  UNL1        0.0603
     26 O         142.4077  142.4654  159.9651 O.2     1  UNL1       -0.1530
     27 O         144.9130  142.5981  161.6100 O.2     1  UNL1       -0.1530
     28 C         142.9613  143.4114  161.7814 C.ar    1  UNL1        0.1226
     29 C         143.7604  144.2171  162.7623 C.ar    1  UNL1        0.0199
     30 C         143.0615  145.0967  163.7562 C.ar    1  UNL1        0.0021
     31 C         141.5634  145.1705  163.7691 C.ar    1  UNL1        0.0104
     32 C         140.7642  144.3647  162.7882 C.ar    1  UNL1        0.0698
     33 C         141.4632  143.4852  161.7944 C.ar    1  UNL1        0.0302
     34 C         139.2661  144.4385  162.8012 C.1     1  UNL1        0.1005
     35 N         137.7680  144.5124  162.8141 N.1     1  UNL1       -0.1908
@<TRIPOS>BOND
     1    19    20    3
     2    20    13    1
     3    13    14   ar
     4    14    15   ar
     5    15    16   ar
     6    16    12    1
     7    12    11    1
     8    11    10    1
     9    10     1    1
    10     1     2    1
    11     2     3    1
    12     3     4    1
    13     4     5    1
    14     5    21    1
    15    21    22    1
    16    22    23    1
    17    23    25    1
    18    25    26    2
    19    25    27    2
    20    25    28    1
    21    28    29   ar
    22    29    30   ar
    23    30    31   ar
    24    31    32   ar
    25    32    34    1
    26    34    35    3
    27    32    33   ar
    28     5     6    1
    29     6     7    1
    30     7     8    1
    31     7     9    1
    32    16    17   ar
    33    17    18   ar
    34    18    13   ar
    35     8     1    1
    36     9     3    1
    37    33    28   ar
    38    23    24    1
