@<TRIPOS>MOLECULE
*****
 29 33 0 0 0
SMALL
GASTEIGER

@<TRIPOS>ATOM
      1 C         139.8486  141.6519  166.6304 C.2     1  UNL1       -0.0007
      2 C         140.3011  143.0269  166.2369 C.2     1  UNL1        0.0192
      3 C         139.8452  143.6235  164.9383 C.2     1  UNL1        0.1207
      4 N         140.1239  144.9465  164.2889 N.2     1  UNL1       -0.0381
      5 N         139.3879  144.9858  162.9824 N.2     1  UNL1        0.0756
      6 C         138.6543  143.6870  162.8245 C.2     1  UNL1        0.3334
      7 C         138.9369  142.8450  164.0333 C.3     1  UNL1        0.1733
      8 C         138.4845  141.4701  164.4268 C.2     1  UNL1       -0.0125
      9 C         138.9404  140.8736  165.7254 C.2     1  UNL1       -0.0257
     10 C         143.0261  138.4927  169.2617 C.3     1  UNL1        0.0545
     11 C         141.8932  139.4758  169.2446 C.ar    1  UNL1        0.0867
     12 N         141.2163  139.8623  170.5262 N.ar    1  UNL1       -0.2459
     13 C         140.0835  140.8454  170.5091 C.ar    1  UNL1        0.0986
     14 C         139.6276  141.4419  169.2106 C.ar    1  UNL1        0.0229
     15 C         140.3045  141.0554  167.9290 C.ar    1  UNL1        0.0299
     16 C         141.4374  140.0723  167.9461 C.ar    1  UNL1        0.1535
     17 F         142.1143  139.6858  166.6645 F       1  UNL1       -0.2029
     18 C         138.4879  139.4986  166.1189 C.3     1  UNL1        0.0221
     19 C         137.7155  138.5982  167.0369 C.3     1  UNL1        0.0047
     20 C         138.4768  138.0174  165.8823 C.3     1  UNL1        0.0047
     21 N         137.7899  143.2985  161.6618 N.pl3   1  UNL1       -0.2234
     22 H         136.9174  143.7350  161.5295 H       1  UNL1        0.2919
     23 C         138.2547  142.2448  160.7006 C.3     1  UNL1        0.1592
     24 C         139.0719  142.6300  159.5033 C.3     1  UNL1        0.0637
     25 C         139.5368  141.5764  158.5421 C.3     1  UNL1        0.0763
     26 N         139.1844  140.1376  158.7784 N.3     1  UNL1       -0.2712
     27 C         139.6492  139.0840  157.8173 C.3     1  UNL1        0.0896
     28 C         138.3671  139.7525  159.9758 C.3     1  UNL1        0.0763
     29 C         137.9023  140.8061  160.9369 C.3     1  UNL1        0.0637
@<TRIPOS>BOND
     1    10    11    1
     2    11    12   ar
     3    12    13   ar
     4    13    14   ar
     5    14    15   ar
     6    15     1    1
     7     1     2    2
     8     2     3    1
     9     3     4    2
    10     4     5    1
    11     5     6    2
    12     6    21    1
    13    21    23    1
    14    23    24    1
    15    24    25    1
    16    25    26    1
    17    26    27    1
    18    26    28    1
    19    28    29    1
    20     6     7    1
    21     7     8    1
    22     8     9    2
    23     9    18    1
    24    18    19    1
    25    19    20    1
    26    15    16   ar
    27    16    17    1
    28    16    11   ar
    29     9     1    1
    30    20    18    1
    31     7     3    1
    32    29    23    1
    33    21    22    1
@<TRIPOS>MOLECULE
*****
 29 33 0 0 0
SMALL
GASTEIGER

@<TRIPOS>ATOM
      1 C         140.0416  142.3987  164.7242 C.2     1  UNL1       -0.0007
      2 C         139.0420  143.4454  164.3301 C.2     1  UNL1        0.0192
      3 C         139.3089  144.3299  163.1483 C.2     1  UNL1        0.1207
      4 N         138.5152  145.4405  162.5264 N.2     1  UNL1       -0.0381
      5 N         139.2911  145.9646  161.3545 N.2     1  UNL1        0.0756
      6 C         140.5642  145.1780  161.2521 C.2     1  UNL1        0.3334
      7 C         140.5752  144.1677  162.3608 C.3     1  UNL1        0.1733
      8 C         141.5746  143.1210  162.7550 C.2     1  UNL1       -0.0125
      9 C         141.3078  142.2365  163.9367 C.2     1  UNL1       -0.0257
     10 C         137.7535  138.2147  166.7880 C.3     1  UNL1        0.0545
     11 C         138.6307  139.4222  166.9379 C.ar    1  UNL1        0.0867
     12 N         139.2411  139.7451  168.2694 N.ar    1  UNL1       -0.2459
     13 C         140.1184  140.9526  168.4193 C.ar    1  UNL1        0.0986
     14 C         140.3852  141.8371  167.2376 C.ar    1  UNL1        0.0229
     15 C         139.7748  141.5141  165.9060 C.ar    1  UNL1        0.0299
     16 C         138.8975  140.3067  165.7562 C.ar    1  UNL1        0.1535
     17 F         138.2871  139.9837  164.4246 F       1  UNL1       -0.2029
     18 C         142.3074  141.1897  164.3309 C.3     1  UNL1        0.0221
     19 C         142.7373  139.7532  164.3695 C.3     1  UNL1        0.0047
     20 C         143.6087  140.8134  164.9751 C.3     1  UNL1        0.0047
     21 N         141.6377  145.3683  160.2220 N.pl3   1  UNL1       -0.2234
     22 H         142.5369  145.6608  160.4963 H       1  UNL1        0.2919
     23 C         141.3414  145.1129  158.7739 C.3     1  UNL1        0.1592
     24 C         142.1179  145.8324  157.7113 C.3     1  UNL1        0.0637
     25 C         141.8217  145.5771  156.2632 C.3     1  UNL1        0.0763
     26 N         140.7488  144.6021  155.8778 N.3     1  UNL1       -0.2712
     27 C         140.4524  144.3467  154.4296 C.3     1  UNL1        0.0896
     28 C         139.9723  143.8826  156.9405 C.3     1  UNL1        0.0763
     29 C         140.2686  144.1380  158.3885 C.3     1  UNL1        0.0637
@<TRIPOS>BOND
     1    10    11    1
     2    11    12   ar
     3    12    13   ar
     4    13    14   ar
     5    14    15   ar
     6    15     1    1
     7     1     2    2
     8     2     3    1
     9     3     4    2
    10     4     5    1
    11     5     6    2
    12     6    21    1
    13    21    23    1
    14    23    24    1
    15    24    25    1
    16    25    26    1
    17    26    27    1
    18    26    28    1
    19    28    29    1
    20     6     7    1
    21     7     8    1
    22     8     9    2
    23     9    18    1
    24    18    19    1
    25    19    20    1
    26    15    16   ar
    27    16    17    1
    28    16    11   ar
    29     9     1    1
    30    20    18    1
    31     7     3    1
    32    29    23    1
    33    21    22    1
@<TRIPOS>MOLECULE
*****
 29 33 0 0 0
SMALL
GASTEIGER

@<TRIPOS>ATOM
      1 C         141.8440  139.9301  166.7785 C.2     1  UNL1       -0.0007
      2 C         143.1919  139.9992  166.1240 C.2     1  UNL1        0.0192
      3 C         143.3931  139.4135  164.7578 C.2     1  UNL1        0.1207
      4 N         144.5981  139.3322  163.8682 N.2     1  UNL1       -0.0381
      5 N         144.1961  138.6271  162.6067 N.2     1  UNL1        0.0756
      6 C         142.7427  138.2727  162.7167 C.2     1  UNL1        0.3334
      7 C         142.2464  138.7587  164.0462 C.3     1  UNL1        0.1733
      8 C         140.8986  138.6896  164.7008 C.2     1  UNL1       -0.0125
      9 C         140.6974  139.2753  166.0669 C.2     1  UNL1       -0.0257
     10 C         140.4223  143.9078  169.8046 C.3     1  UNL1        0.0545
     11 C         140.9319  142.5047  169.6578 C.ar    1  UNL1        0.0867
     12 N         141.2403  141.6873  170.8771 N.ar    1  UNL1       -0.2459
     13 C         141.7499  140.2842  170.7302 C.ar    1  UNL1        0.0986
     14 C         141.9511  139.6985  169.3641 C.ar    1  UNL1        0.0229
     15 C         141.6427  140.5159  168.1448 C.ar    1  UNL1        0.0299
     16 C         141.1331  141.9190  168.2916 C.ar    1  UNL1        0.1535
     17 F         140.8248  142.7364  167.0723 F       1  UNL1       -0.2029
     18 C         139.3494  139.2062  166.7215 C.3     1  UNL1        0.0221
     19 C         138.4581  139.4928  167.8934 C.3     1  UNL1        0.0047
     20 C         137.9060  138.7998  166.6831 C.3     1  UNL1        0.0047
     21 N         141.9286  137.5577  161.6794 N.pl3   1  UNL1       -0.2234
     22 H         142.0500  136.5909  161.5387 H       1  UNL1        0.2919
     23 C         140.9296  138.3158  160.8564 C.3     1  UNL1        0.1592
     24 C         139.4876  138.3463  161.2681 C.3     1  UNL1        0.0637
     25 C         138.4885  139.1044  160.4452 C.3     1  UNL1        0.0763
     26 N         138.9316  139.8320  159.2105 N.3     1  UNL1       -0.2712
     27 C         137.9325  140.5900  158.3875 C.3     1  UNL1        0.0896
     28 C         140.3736  139.8014  158.7988 C.3     1  UNL1        0.0763
     29 C         141.3726  139.0433  159.6218 C.3     1  UNL1        0.0637
@<TRIPOS>BOND
     1    10    11    1
     2    11    12   ar
     3    12    13   ar
     4    13    14   ar
     5    14    15   ar
     6    15     1    1
     7     1     2    2
     8     2     3    1
     9     3     4    2
    10     4     5    1
    11     5     6    2
    12     6    21    1
    13    21    23    1
    14    23    24    1
    15    24    25    1
    16    25    26    1
    17    26    27    1
    18    26    28    1
    19    28    29    1
    20     6     7    1
    21     7     8    1
    22     8     9    2
    23     9    18    1
    24    18    19    1
    25    19    20    1
    26    15    16   ar
    27    16    17    1
    28    16    11   ar
    29     9     1    1
    30    20    18    1
    31     7     3    1
    32    29    23    1
    33    21    22    1
@<TRIPOS>MOLECULE
*****
 29 33 0 0 0
SMALL
GASTEIGER

@<TRIPOS>ATOM
      1 C         141.1886  142.3568  165.3525 C.2     1  UNL1       -0.0007
      2 C         139.7083  142.3899  165.1118 C.2     1  UNL1        0.0192
      3 C         139.1390  143.3009  164.0650 C.2     1  UNL1        0.1207
      4 N         137.7321  143.5480  163.6071 N.2     1  UNL1       -0.0381
      5 N         137.7735  144.5786  162.5180 N.2     1  UNL1        0.0756
      6 C         139.2059  144.9684  162.3027 C.2     1  UNL1        0.3334
      7 C         140.0498  144.1787  163.2589 C.3     1  UNL1        0.1733
      8 C         141.5300  144.1456  163.4996 C.2     1  UNL1       -0.0125
      9 C         142.0993  143.2346  164.5464 C.2     1  UNL1       -0.0257
     10 C         143.7258  138.0074  166.6357 C.3     1  UNL1        0.0545
     11 C         143.0266  139.2711  167.0410 C.ar    1  UNL1        0.0867
     12 N         142.8968  139.6238  168.4931 N.ar    1  UNL1       -0.2459
     13 C         142.1976  140.8875  168.8984 C.ar    1  UNL1        0.0986
     14 C         141.6282  141.7984  167.8516 C.ar    1  UNL1        0.0229
     15 C         141.7580  141.4458  166.3994 C.ar    1  UNL1        0.0299
     16 C         142.4572  140.1821  165.9941 C.ar    1  UNL1        0.1535
     17 F         142.5870  139.8294  164.5420 F       1  UNL1       -0.2029
     18 C         143.5796  143.2015  164.7871 C.3     1  UNL1        0.0221
     19 C         144.9484  142.7256  164.3999 C.3     1  UNL1        0.0047
     20 C         144.7746  143.6201  165.5914 C.3     1  UNL1        0.0047
     21 N         139.7064  145.9717  161.3063 N.pl3   1  UNL1       -0.2234
     22 H         139.5925  146.9345  161.4776 H       1  UNL1        0.2919
     23 C         140.3805  145.5081  160.0491 C.3     1  UNL1        0.1592
     24 C         139.9745  146.0834  158.7246 C.3     1  UNL1        0.0637
     25 C         140.6485  145.6199  157.4673 C.3     1  UNL1        0.0763
     26 N         141.7286  144.5810  157.5346 N.3     1  UNL1       -0.2712
     27 C         142.4027  144.1175  156.2773 C.3     1  UNL1        0.0896
     28 C         142.1345  144.0058  158.8591 C.3     1  UNL1        0.0763
     29 C         141.4605  144.4694  160.1163 C.3     1  UNL1        0.0637
@<TRIPOS>BOND
     1    10    11    1
     2    11    12   ar
     3    12    13   ar
     4    13    14   ar
     5    14    15   ar
     6    15     1    1
     7     1     2    2
     8     2     3    1
     9     3     4    2
    10     4     5    1
    11     5     6    2
    12     6    21    1
    13    21    23    1
    14    23    24    1
    15    24    25    1
    16    25    26    1
    17    26    27    1
    18    26    28    1
    19    28    29    1
    20     6     7    1
    21     7     8    1
    22     8     9    2
    23     9    18    1
    24    18    19    1
    25    19    20    1
    26    15    16   ar
    27    16    17    1
    28    16    11   ar
    29     9     1    1
    30    20    18    1
    31     7     3    1
    32    29    23    1
    33    21    22    1
@<TRIPOS>MOLECULE
*****
 29 33 0 0 0
SMALL
GASTEIGER

@<TRIPOS>ATOM
      1 C         140.0693  142.3118  164.7590 C.2     1  UNL1       -0.0007
      2 C         139.0986  143.3751  164.3378 C.2     1  UNL1        0.0192
      3 C         139.3994  144.2359  163.1468 C.2     1  UNL1        0.1207
      4 N         138.6387  145.3550  162.4995 N.2     1  UNL1       -0.0381
      5 N         139.4399  145.8442  161.3296 N.2     1  UNL1        0.0756
      6 C         140.6958  145.0275  161.2539 C.2     1  UNL1        0.3334
      7 C         140.6708  144.0335  162.3770 C.3     1  UNL1        0.1733
      8 C         141.6414  142.9703  162.7982 C.2     1  UNL1       -0.0125
      9 C         141.3406  142.1095  163.9892 C.2     1  UNL1       -0.0257
     10 C         137.7034  138.1820  166.8440 C.3     1  UNL1        0.0545
     11 C         138.5856  139.3860  166.9925 C.ar    1  UNL1        0.0867
     12 N         139.1670  139.7292  168.3319 N.ar    1  UNL1       -0.2459
     13 C         140.0492  140.9332  168.4804 C.ar    1  UNL1        0.0986
     14 C         140.3499  141.7941  167.2895 C.ar    1  UNL1        0.0229
     15 C         139.7685  141.4509  165.9500 C.ar    1  UNL1        0.0299
     16 C         138.8863  140.2469  165.8015 C.ar    1  UNL1        0.1535
     17 F         138.3049  139.9037  164.4620 F       1  UNL1       -0.2029
     18 C         142.3113  141.0462  164.4104 C.3     1  UNL1        0.0221
     19 C         143.5175  140.6262  165.1970 C.3     1  UNL1        0.0047
     20 C         142.7864  139.6246  164.3530 C.3     1  UNL1        0.0047
     21 N         141.7855  145.1784  160.2341 N.pl3   1  UNL1       -0.2234
     22 H         142.3507  145.9845  160.2332 H       1  UNL1        0.2919
     23 C         142.0140  144.1010  159.2157 C.3     1  UNL1        0.1592
     24 C         143.2002  143.1915  159.3395 C.3     1  UNL1        0.0637
     25 C         143.4288  142.1141  158.3211 C.3     1  UNL1        0.0763
     26 N         142.4710  141.9465  157.1789 N.3     1  UNL1       -0.2712
     27 C         142.6995  140.8691  156.1605 C.3     1  UNL1        0.0896
     28 C         141.2847  142.8561  157.0552 C.3     1  UNL1        0.0763
     29 C         141.0562  143.9333  158.0736 C.3     1  UNL1        0.0637
@<TRIPOS>BOND
     1    10    11    1
     2    11    12   ar
     3    12    13   ar
     4    13    14   ar
     5    14    15   ar
     6    15     1    1
     7     1     2    2
     8     2     3    1
     9     3     4    2
    10     4     5    1
    11     5     6    2
    12     6    21    1
    13    21    23    1
    14    23    24    1
    15    24    25    1
    16    25    26    1
    17    26    27    1
    18    26    28    1
    19    28    29    1
    20     6     7    1
    21     7     8    1
    22     8     9    2
    23     9    18    1
    24    18    19    1
    25    19    20    1
    26    15    16   ar
    27    16    17    1
    28    16    11   ar
    29     9     1    1
    30    20    18    1
    31     7     3    1
    32    29    23    1
    33    21    22    1
@<TRIPOS>MOLECULE
*****
 29 33 0 0 0
SMALL
GASTEIGER

@<TRIPOS>ATOM
      1 C         141.0941  142.2824  165.6313 C.2     1  UNL1       -0.0007
      2 C         139.6105  142.3189  165.4131 C.2     1  UNL1        0.0192
      3 C         139.0377  143.1283  164.2876 C.2     1  UNL1        0.1207
      4 N         137.6271  143.3540  163.8301 N.2     1  UNL1       -0.0381
      5 N         137.6661  144.2663  162.6402 N.2     1  UNL1        0.0756
      6 C         139.1008  144.6046  162.3622 C.2     1  UNL1        0.3334
      7 C         139.9485  143.9013  163.3804 C.3     1  UNL1        0.1733
      8 C         141.4321  143.8647  163.5986 C.2     1  UNL1       -0.0125
      9 C         142.0049  143.0553  164.7241 C.2     1  UNL1       -0.0257
     10 C         142.1535  141.7233  170.6876 C.3     1  UNL1        0.0545
     11 C         142.1966  141.1934  169.2849 C.ar    1  UNL1        0.0867
     12 N         142.8125  139.8541  169.0078 N.ar    1  UNL1       -0.2459
     13 C         142.8557  139.3242  167.6052 C.ar    1  UNL1        0.0986
     14 C         142.2829  140.1336  166.4797 C.ar    1  UNL1        0.0229
     15 C         141.6670  141.4729  166.7568 C.ar    1  UNL1        0.0299
     16 C         141.6238  142.0028  168.1595 C.ar    1  UNL1        0.1535
     17 F         141.0079  143.3422  168.4366 F       1  UNL1       -0.2029
     18 C         143.4885  143.0188  164.9423 C.3     1  UNL1        0.0221
     19 C         144.8418  142.4817  164.5816 C.3     1  UNL1        0.0047
     20 C         144.7049  143.4928  165.6811 C.3     1  UNL1        0.0047
     21 N         139.6001  145.4906  161.2596 N.pl3   1  UNL1       -0.2234
     22 H         139.5495  146.4693  161.3535 H       1  UNL1        0.2919
     23 C         140.1765  144.8855  160.0140 C.3     1  UNL1        0.1592
     24 C         139.7193  143.5320  159.5569 C.3     1  UNL1        0.0637
     25 C         140.2956  142.9268  158.3113 C.3     1  UNL1        0.0763
     26 N         141.3292  143.6753  157.5227 N.3     1  UNL1       -0.2712
     27 C         141.9056  143.0702  156.2771 C.3     1  UNL1        0.0896
     28 C         141.7863  145.0288  157.9799 C.3     1  UNL1        0.0763
     29 C         141.2100  145.6339  159.2255 C.3     1  UNL1        0.0637
@<TRIPOS>BOND
     1    10    11    1
     2    11    12   ar
     3    12    13   ar
     4    13    14   ar
     5    14    15   ar
     6    15     1    1
     7     1     2    2
     8     2     3    1
     9     3     4    2
    10     4     5    1
    11     5     6    2
    12     6    21    1
    13    21    23    1
    14    23    24    1
    15    24    25    1
    16    25    26    1
    17    26    27    1
    18    26    28    1
    19    28    29    1
    20     6     7    1
    21     7     8    1
    22     8     9    2
    23     9    18    1
    24    18    19    1
    25    19    20    1
    26    15    16   ar
    27    16    17    1
    28    16    11   ar
    29     9     1    1
    30    20    18    1
    31     7     3    1
    32    29    23    1
    33    21    22    1
@<TRIPOS>MOLECULE
*****
 29 33 0 0 0
SMALL
GASTEIGER

@<TRIPOS>ATOM
      1 C         142.2608  141.1372  165.9837 C.2     1  UNL1       -0.0007
      2 C         142.9439  142.4714  165.9235 C.2     1  UNL1        0.0192
      3 C         143.3084  143.0681  164.5964 C.2     1  UNL1        0.1207
      4 N         143.9820  144.3561  164.2261 N.2     1  UNL1       -0.0381
      5 N         144.0797  144.4148  162.7305 N.2     1  UNL1        0.0756
      6 C         143.4665  143.1630  162.1764 C.2     1  UNL1        0.3334
      7 C         142.9898  142.3307  163.3296 C.3     1  UNL1        0.1733
      8 C         142.3068  140.9966  163.3899 C.2     1  UNL1       -0.0125
      9 C         141.9423  140.3999  164.7170 C.2     1  UNL1       -0.0257
     10 C         138.8308  140.4751  169.8304 C.3     1  UNL1        0.0545
     11 C         140.1813  140.2095  169.2341 C.ar    1  UNL1        0.0867
     12 N         141.1674  139.3472  169.9649 N.ar    1  UNL1       -0.2459
     13 C         142.5179  139.0815  169.3687 C.ar    1  UNL1        0.0986
     14 C         142.8824  139.6782  168.0416 C.ar    1  UNL1        0.0229
     15 C         141.8964  140.5405  167.3108 C.ar    1  UNL1        0.0299
     16 C         140.5458  140.8062  167.9071 C.ar    1  UNL1        0.1535
     17 F         139.5598  141.6685  167.1763 F       1  UNL1       -0.2029
     18 C         141.2592  139.0657  164.7772 C.3     1  UNL1        0.0221
     19 C         141.3103  137.5728  164.6410 C.3     1  UNL1        0.0047
     20 C         140.0250  138.2480  165.0178 C.3     1  UNL1        0.0047
     21 N         143.3505  142.8062  160.7241 N.pl3   1  UNL1       -0.2234
     22 H         143.8098  142.0085  160.3749 H       1  UNL1        0.2919
     23 C         142.5345  143.6648  159.8037 C.3     1  UNL1        0.1592
     24 C         141.3508  144.4182  160.3337 C.3     1  UNL1        0.0637
     25 C         140.5348  145.2768  159.4134 C.3     1  UNL1        0.0763
     26 N         140.9027  145.3819  157.9630 N.3     1  UNL1       -0.2712
     27 C         140.0867  146.2405  157.0426 C.3     1  UNL1        0.0896
     28 C         142.0864  144.6284  157.4330 C.3     1  UNL1        0.0763
     29 C         142.9023  143.7698  158.3533 C.3     1  UNL1        0.0637
@<TRIPOS>BOND
     1    10    11    1
     2    11    12   ar
     3    12    13   ar
     4    13    14   ar
     5    14    15   ar
     6    15     1    1
     7     1     2    2
     8     2     3    1
     9     3     4    2
    10     4     5    1
    11     5     6    2
    12     6    21    1
    13    21    23    1
    14    23    24    1
    15    24    25    1
    16    25    26    1
    17    26    27    1
    18    26    28    1
    19    28    29    1
    20     6     7    1
    21     7     8    1
    22     8     9    2
    23     9    18    1
    24    18    19    1
    25    19    20    1
    26    15    16   ar
    27    16    17    1
    28    16    11   ar
    29     9     1    1
    30    20    18    1
    31     7     3    1
    32    29    23    1
    33    21    22    1
@<TRIPOS>MOLECULE
*****
 29 33 0 0 0
SMALL
GASTEIGER

@<TRIPOS>ATOM
      1 C         140.5758  141.6688  166.1299 C.2     1  UNL1       -0.0007
      2 C         141.1475  142.9553  165.6118 C.2     1  UNL1        0.0192
      3 C         140.6077  143.5616  164.3505 C.2     1  UNL1        0.1207
      4 N         140.9687  144.8111  163.6032 N.2     1  UNL1       -0.0381
      5 N         140.0804  144.9033  162.3980 N.2     1  UNL1        0.0756
      6 C         139.1704  143.7108  162.4005 C.2     1  UNL1        0.3334
      7 C         139.4964  142.8816  163.6073 C.3     1  UNL1        0.1733
      8 C         138.9248  141.5952  164.1253 C.2     1  UNL1       -0.0125
      9 C         139.4645  140.9888  165.3867 C.2     1  UNL1       -0.0257
     10 C         140.9381  141.6417  171.3134 C.3     1  UNL1        0.0545
     11 C         141.2967  141.0489  169.9830 C.ar    1  UNL1        0.0867
     12 N         142.1951  139.8496  169.9139 N.ar    1  UNL1       -0.2459
     13 C         142.5537  139.2568  168.5836 C.ar    1  UNL1        0.0986
     14 C         142.0140  139.8632  167.3222 C.ar    1  UNL1        0.0229
     15 C         141.1156  141.0624  167.3913 C.ar    1  UNL1        0.0299
     16 C         140.7570  141.6552  168.7217 C.ar    1  UNL1        0.1535
     17 F         139.8586  142.8545  168.7907 F       1  UNL1       -0.2029
     18 C         138.8928  139.7024  165.9047 C.3     1  UNL1        0.0221
     19 C         138.6903  138.2224  165.7677 C.3     1  UNL1        0.0047
     20 C         138.1052  138.9542  166.9391 C.3     1  UNL1        0.0047
     21 N         138.1192  143.4018  161.3762 N.pl3   1  UNL1       -0.2234
     22 H         137.2435  143.8498  161.4188 H       1  UNL1        0.2919
     23 C         138.4019  142.4101  160.2868 C.3     1  UNL1        0.1592
     24 C         138.1446  140.9504  160.5162 C.3     1  UNL1        0.0637
     25 C         138.4273  139.9587  159.4269 C.3     1  UNL1        0.0763
     26 N         138.9675  140.4269  158.1081 N.3     1  UNL1       -0.2712
     27 C         139.2503  139.4353  157.0187 C.3     1  UNL1        0.0896
     28 C         139.2249  141.8868  157.8788 C.3     1  UNL1        0.0763
     29 C         138.9421  142.8783  158.9681 C.3     1  UNL1        0.0637
@<TRIPOS>BOND
     1    10    11    1
     2    11    12   ar
     3    12    13   ar
     4    13    14   ar
     5    14    15   ar
     6    15     1    1
     7     1     2    2
     8     2     3    1
     9     3     4    2
    10     4     5    1
    11     5     6    2
    12     6    21    1
    13    21    23    1
    14    23    24    1
    15    24    25    1
    16    25    26    1
    17    26    27    1
    18    26    28    1
    19    28    29    1
    20     6     7    1
    21     7     8    1
    22     8     9    2
    23     9    18    1
    24    18    19    1
    25    19    20    1
    26    15    16   ar
    27    16    17    1
    28    16    11   ar
    29     9     1    1
    30    20    18    1
    31     7     3    1
    32    29    23    1
    33    21    22    1
@<TRIPOS>MOLECULE
*****
 29 33 0 0 0
SMALL
GASTEIGER

@<TRIPOS>ATOM
      1 C         140.5153  140.9694  167.3989 C.2     1  UNL1       -0.0007
      2 C         139.5244  139.9278  167.8273 C.2     1  UNL1        0.0192
      3 C         138.9756  138.9572  166.8240 C.2     1  UNL1        0.1207
      4 N         137.9936  137.8304  166.9508 N.2     1  UNL1       -0.0381
      5 N         137.8287  137.2049  165.5974 N.2     1  UNL1        0.0756
      6 C         138.7088  137.9451  164.6343 C.2     1  UNL1        0.3334
      7 C         139.4176  139.0280  165.3924 C.3     1  UNL1        0.1733
      8 C         140.4084  140.0696  164.9640 C.2     1  UNL1       -0.0125
      9 C         140.9573  141.0402  165.9673 C.2     1  UNL1       -0.0257
     10 C         144.4657  142.6848  170.3061 C.3     1  UNL1        0.0545
     11 C         143.0394  142.7978  169.8558 C.ar    1  UNL1        0.0867
     12 N         142.1618  143.8814  170.4088 N.ar    1  UNL1       -0.2459
     13 C         140.7355  143.9943  169.9585 C.ar    1  UNL1        0.0986
     14 C         140.1866  143.0236  168.9552 C.ar    1  UNL1        0.0229
     15 C         141.0641  141.9401  168.4022 C.ar    1  UNL1        0.0299
     16 C         142.4905  141.8271  168.8525 C.ar    1  UNL1        0.1535
     17 F         143.3680  140.7436  168.2995 F       1  UNL1       -0.2029
     18 C         141.9481  142.0817  165.5389 C.3     1  UNL1        0.0221
     19 C         142.2432  143.4397  164.9744 C.3     1  UNL1        0.0047
     20 C         143.3693  142.5275  165.3614 C.3     1  UNL1        0.0047
     21 N         138.8544  137.6534  163.1702 N.pl3   1  UNL1       -0.2234
     22 H         138.1372  137.1812  162.6886 H       1  UNL1        0.2919
     23 C         140.0927  138.0813  162.4397 C.3     1  UNL1        0.1592
     24 C         140.0101  139.1387  161.3791 C.3     1  UNL1        0.0637
     25 C         141.2484  139.5666  160.6486 C.3     1  UNL1        0.0763
     26 N         142.5693  138.9370  160.9789 N.3     1  UNL1       -0.2712
     27 C         143.8076  139.3649  160.2484 C.3     1  UNL1        0.0896
     28 C         142.6518  137.8796  162.0395 C.3     1  UNL1        0.0763
     29 C         141.4135  137.4517  162.7699 C.3     1  UNL1        0.0637
@<TRIPOS>BOND
     1    10    11    1
     2    11    12   ar
     3    12    13   ar
     4    13    14   ar
     5    14    15   ar
     6    15     1    1
     7     1     2    2
     8     2     3    1
     9     3     4    2
    10     4     5    1
    11     5     6    2
    12     6    21    1
    13    21    23    1
    14    23    24    1
    15    24    25    1
    16    25    26    1
    17    26    27    1
    18    26    28    1
    19    28    29    1
    20     6     7    1
    21     7     8    1
    22     8     9    2
    23     9    18    1
    24    18    19    1
    25    19    20    1
    26    15    16   ar
    27    16    17    1
    28    16    11   ar
    29     9     1    1
    30    20    18    1
    31     7     3    1
    32    29    23    1
    33    21    22    1
