@<TRIPOS>MOLECULE
*****
 41 46 0 0 0
SMALL
GASTEIGER

@<TRIPOS>ATOM
      1 C         137.8654  140.1050  162.1740 C.3     1  UNL1        0.0700
      2 C         137.6907  140.4232  163.6294 C.3     1  UNL1        0.0193
      3 C         137.6722  141.8513  164.0880 C.3     1  UNL1        0.0286
      4 C         137.8285  142.9612  163.0911 C.3     1  UNL1        0.0932
      5 C         138.0032  142.6430  161.6357 C.3     1  UNL1        0.0286
      6 C         138.0217  141.2149  161.1772 C.3     1  UNL1        0.0193
      7 O         137.8450  142.1942  162.7923 O.3     1  UNL1       -0.3572
      8 C         137.8617  140.9029  162.3776 C.3     1  UNL1        0.1562
      9 N         137.8838  138.6770  161.7155 N.3     1  UNL1       -0.2926
     10 H         137.4929  138.1189  162.4745 H       1  UNL1        0.1236
     11 C         139.1804  138.0309  161.3263 C.3     1  UNL1        0.1152
     12 O         145.9331  141.6695  162.7088 O.2     1  UNL1       -0.2707
     13 C         144.9024  140.6518  163.0984 C.2     1  UNL1        0.2718
     14 C         145.0917  139.8292  164.3383 C.3     1  UNL1        0.2898
     15 O         144.0610  138.8115  164.7279 O.3     1  UNL1       -0.4628
     16 C         142.8408  138.6164  163.8775 C.ar    1  UNL1        0.1708
     17 C         141.8101  137.5986  164.2671 C.ar    1  UNL1        0.0411
     18 C         140.5900  137.4035  163.4167 C.ar    1  UNL1        0.0193
     19 C         140.4006  138.2261  162.1767 C.ar    1  UNL1        0.0765
     20 N         141.4313  139.2438  161.7871 N.ar    1  UNL1       -0.2304
     21 C         142.6515  139.4389  162.6376 C.ar    1  UNL1        0.1682
     22 N         143.6823  140.4566  162.2480 N.am    1  UNL1       -0.2639
     23 H         143.5580  140.9965  161.4342 H       1  UNL1        0.1565
     24 C         137.8101  144.3892  163.5497 C.3     1  UNL1        0.0320
     25 C         138.9213  144.9155  164.4089 C.3     1  UNL1        0.0327
     26 C         140.3263  144.4357  164.1950 C.ar    1  UNL1        0.0261
     27 C         141.1138  144.9233  163.0150 C.ar    1  UNL1        0.1566
     28 F         140.4963  145.8906  162.0491 F       1  UNL1       -0.2028
     29 C         142.5188  144.4435  162.8011 C.ar    1  UNL1        0.1281
     30 N         143.1363  143.4762  163.7670 N.ar    1  UNL1       -0.2400
     31 C         142.3489  142.9887  164.9469 C.ar    1  UNL1        0.0990
     32 C         142.9664  142.0214  165.9128 C.ar    1  UNL1        0.0254
     33 C         142.1789  141.5339  167.0927 C.ar    1  UNL1        0.0593
     34 C         140.7739  142.0136  167.3067 C.ar    1  UNL1        0.2250
     35 N         140.1564  142.9809  166.3408 N.ar    1  UNL1       -0.2104
     36 C         140.9438  143.4685  165.1609 C.ar    1  UNL1        0.1002
     37 O         139.9864  141.5261  168.4866 O.3     1  UNL1       -0.4575
     38 C         140.3995  140.2714  169.1973 C.3     1  UNL1        0.2387
     39 C         140.4590  140.2432  170.6959 C.3     1  UNL1        0.1848
     40 O         139.6676  139.2227  171.4588 O.3     1  UNL1       -0.3784
     41 H         138.7201  139.3912  171.3371 H       1  UNL1        0.2106
@<TRIPOS>BOND
     1    12    13    2
     2    13    14    1
     3    14    15    1
     4    15    16    1
     5    16    17   ar
     6    17    18   ar
     7    18    19   ar
     8    19    11    1
     9    11     9    1
    10     9     1    1
    11     1     2    1
    12     2     3    1
    13     3     4    1
    14     4    24    1
    15    24    25    1
    16    25    26    1
    17    26    27   ar
    18    27    28    1
    19    27    29   ar
    20    29    30   ar
    21    30    31   ar
    22    31    32   ar
    23    32    33   ar
    24    33    34   ar
    25    34    37    1
    26    37    38    1
    27    38    39    1
    28    39    40    1
    29    34    35   ar
    30    35    36   ar
    31     4     5    1
    32     5     6    1
    33     4     7    1
    34     7     8    1
    35    19    20   ar
    36    20    21   ar
    37    21    22    1
    38    22    13   am
    39    21    16   ar
    40     6     1    1
    41     8     1    1
    42    36    26   ar
    43    36    31   ar
    44     9    10    1
    45    40    41    1
    46    22    23    1
@<TRIPOS>MOLECULE
*****
 41 46 0 0 0
SMALL
GASTEIGER

@<TRIPOS>ATOM
      1 C         144.4085  139.7064  163.4009 C.3     1  UNL1        0.0700
      2 C         144.1699  139.3336  164.8341 C.3     1  UNL1        0.0193
      3 C         142.9876  138.4870  165.2021 C.3     1  UNL1        0.0286
      4 C         142.0439  138.0131  164.1368 C.3     1  UNL1        0.0932
      5 C         142.2824  138.3859  162.7035 C.3     1  UNL1        0.0286
      6 C         143.4648  139.2326  162.3356 C.3     1  UNL1        0.0193
      7 O         142.6779  138.4750  163.8867 O.3     1  UNL1       -0.3572
      8 C         143.7470  139.2406  163.5539 C.3     1  UNL1        0.1562
      9 N         145.5908  140.5530  163.0330 N.3     1  UNL1       -0.2926
     10 H         146.4130  140.0998  163.4317 H       1  UNL1        0.1236
     11 C         145.6428  141.9920  163.4535 C.3     1  UNL1        0.1152
     12 O         140.4416  145.4245  158.7721 O.2     1  UNL1       -0.2707
     13 C         140.9737  145.1593  160.1493 C.2     1  UNL1        0.2718
     14 C         140.3042  145.7728  161.3431 C.3     1  UNL1        0.2898
     15 O         140.8363  145.5076  162.7202 O.3     1  UNL1       -0.4628
     16 C         142.0379  144.6287  162.9036 C.ar    1  UNL1        0.1708
     17 C         142.5700  144.3634  164.2807 C.ar    1  UNL1        0.0411
     18 C         143.7716  143.4845  164.4640 C.ar    1  UNL1        0.0193
     19 C         144.4412  142.8709  163.2702 C.ar    1  UNL1        0.0765
     20 N         143.9091  143.1362  161.8931 N.ar    1  UNL1       -0.2304
     21 C         142.7074  144.0151  161.7098 C.ar    1  UNL1        0.1682
     22 N         142.1753  144.2804  160.3326 N.am    1  UNL1       -0.2639
     23 H         142.6148  143.8776  159.5491 H       1  UNL1        0.1565
     24 C         140.8616  137.1665  164.5047 C.3     1  UNL1        0.0320
     25 C         139.5915  137.8141  164.9711 C.3     1  UNL1        0.0327
     26 C         139.1002  139.0661  164.3070 C.ar    1  UNL1        0.0261
     27 C         138.3624  138.9837  163.0035 C.ar    1  UNL1        0.1566
     28 F         138.1160  137.6494  162.3642 F       1  UNL1       -0.2028
     29 C         137.8711  140.2357  162.3394 C.ar    1  UNL1        0.1281
     30 N         138.1175  141.5701  162.9787 N.ar    1  UNL1       -0.2400
     31 C         138.8553  141.6525  164.2821 C.ar    1  UNL1        0.0990
     32 C         139.1017  142.9869  164.9214 C.ar    1  UNL1        0.0254
     33 C         139.8395  143.0692  166.2249 C.ar    1  UNL1        0.0593
     34 C         140.3308  141.8172  166.8890 C.ar    1  UNL1        0.2250
     35 N         140.0843  140.4828  166.2497 N.ar    1  UNL1       -0.2104
     36 C         139.3466  140.4004  164.9463 C.ar    1  UNL1        0.1002
     37 O         141.0685  141.8996  168.1924 O.3     1  UNL1       -0.4575
     38 C         140.3229  142.2018  169.4584 C.3     1  UNL1        0.2387
     39 C         140.6944  141.5029  170.7326 C.3     1  UNL1        0.1848
     40 O         140.5250  142.2025  172.0486 O.3     1  UNL1       -0.3784
     41 H         141.1328  142.9571  172.0942 H       1  UNL1        0.2106
@<TRIPOS>BOND
     1    12    13    2
     2    13    14    1
     3    14    15    1
     4    15    16    1
     5    16    17   ar
     6    17    18   ar
     7    18    19   ar
     8    19    11    1
     9    11     9    1
    10     9     1    1
    11     1     2    1
    12     2     3    1
    13     3     4    1
    14     4    24    1
    15    24    25    1
    16    25    26    1
    17    26    27   ar
    18    27    28    1
    19    27    29   ar
    20    29    30   ar
    21    30    31   ar
    22    31    32   ar
    23    32    33   ar
    24    33    34   ar
    25    34    37    1
    26    37    38    1
    27    38    39    1
    28    39    40    1
    29    34    35   ar
    30    35    36   ar
    31     4     5    1
    32     5     6    1
    33     4     7    1
    34     7     8    1
    35    19    20   ar
    36    20    21   ar
    37    21    22    1
    38    22    13   am
    39    21    16   ar
    40     6     1    1
    41     8     1    1
    42    36    26   ar
    43    36    31   ar
    44     9    10    1
    45    40    41    1
    46    22    23    1
@<TRIPOS>MOLECULE
*****
 41 46 0 0 0
SMALL
GASTEIGER

@<TRIPOS>ATOM
      1 C         142.3710  138.1941  162.5790 C.3     1  UNL1        0.0700
      2 C         143.1318  139.0076  161.5743 C.3     1  UNL1        0.0193
      3 C         144.2383  139.9139  162.0262 C.3     1  UNL1        0.0286
      4 C         144.5841  140.0067  163.4829 C.3     1  UNL1        0.0932
      5 C         143.8233  139.1932  164.4876 C.3     1  UNL1        0.0286
      6 C         142.7167  138.2869  164.0356 C.3     1  UNL1        0.0193
      7 O         143.9698  139.4961  163.2831 O.3     1  UNL1       -0.3572
      8 C         142.9692  138.6767  162.8745 C.3     1  UNL1        0.1562
      9 N         141.2645  137.2878  162.1271 N.3     1  UNL1       -0.2926
     10 H         141.6331  136.7372  161.3516 H       1  UNL1        0.1236
     11 C         139.9610  137.8685  161.6648 C.3     1  UNL1        0.1152
     12 O         138.3899  145.4912  162.0855 O.2     1  UNL1       -0.2707
     13 C         138.3103  144.1140  162.6745 C.2     1  UNL1        0.2718
     14 C         137.6273  143.9004  163.9928 C.3     1  UNL1        0.2898
     15 O         137.5477  142.5232  164.5818 O.3     1  UNL1       -0.4628
     16 C         138.1510  141.3596  163.8526 C.ar    1  UNL1        0.1708
     17 C         138.0713  139.9824  164.4416 C.ar    1  UNL1        0.0411
     18 C         138.6746  138.8187  163.7124 C.ar    1  UNL1        0.0193
     19 C         139.3577  139.0322  162.3940 C.ar    1  UNL1        0.0765
     20 N         139.4373  140.4094  161.8050 N.ar    1  UNL1       -0.2304
     21 C         138.8339  141.5731  162.5343 C.ar    1  UNL1        0.1682
     22 N         138.9136  142.9503  161.9453 N.am    1  UNL1       -0.2639
     23 H         139.3619  143.0905  161.0800 H       1  UNL1        0.1565
     24 C         145.6906  140.9129  163.9348 C.3     1  UNL1        0.0320
     25 C         145.3721  142.2822  164.4580 C.3     1  UNL1        0.0327
     26 C         144.0399  142.9060  164.1648 C.ar    1  UNL1        0.0261
     27 C         143.8192  143.6293  162.8693 C.ar    1  UNL1        0.1566
     28 F         144.9308  143.7287  161.8670 F       1  UNL1       -0.2028
     29 C         142.4870  144.2531  162.5760 C.ar    1  UNL1        0.1281
     30 N         141.3754  144.1537  163.5783 N.ar    1  UNL1       -0.2400
     31 C         141.5961  143.4305  164.8737 C.ar    1  UNL1        0.0990
     32 C         140.4845  143.3311  165.8760 C.ar    1  UNL1        0.0254
     33 C         140.7052  142.6078  167.1715 C.ar    1  UNL1        0.0593
     34 C         142.0374  141.9840  167.4647 C.ar    1  UNL1        0.2250
     35 N         143.1490  142.0834  166.4625 N.ar    1  UNL1       -0.2104
     36 C         142.9283  142.8066  165.1670 C.ar    1  UNL1        0.1002
     37 O         142.2580  141.2608  168.7602 O.3     1  UNL1       -0.4575
     38 C         141.1070  141.0240  169.6924 C.3     1  UNL1        0.2387
     39 C         140.8636  139.6531  170.2504 C.3     1  UNL1        0.1848
     40 O         139.9388  139.4716  171.4174 O.3     1  UNL1       -0.3784
     41 H         140.3182  139.9006  172.2004 H       1  UNL1        0.2106
@<TRIPOS>BOND
     1    12    13    2
     2    13    14    1
     3    14    15    1
     4    15    16    1
     5    16    17   ar
     6    17    18   ar
     7    18    19   ar
     8    19    11    1
     9    11     9    1
    10     9     1    1
    11     1     2    1
    12     2     3    1
    13     3     4    1
    14     4    24    1
    15    24    25    1
    16    25    26    1
    17    26    27   ar
    18    27    28    1
    19    27    29   ar
    20    29    30   ar
    21    30    31   ar
    22    31    32   ar
    23    32    33   ar
    24    33    34   ar
    25    34    37    1
    26    37    38    1
    27    38    39    1
    28    39    40    1
    29    34    35   ar
    30    35    36   ar
    31     4     5    1
    32     5     6    1
    33     4     7    1
    34     7     8    1
    35    19    20   ar
    36    20    21   ar
    37    21    22    1
    38    22    13   am
    39    21    16   ar
    40     6     1    1
    41     8     1    1
    42    36    26   ar
    43    36    31   ar
    44     9    10    1
    45    40    41    1
    46    22    23    1
@<TRIPOS>MOLECULE
*****
 41 46 0 0 0
SMALL
GASTEIGER

@<TRIPOS>ATOM
      1 C         139.9714  143.8882  162.1138 C.3     1  UNL1        0.0700
      2 C         139.9959  144.2568  163.5676 C.3     1  UNL1        0.0193
      3 C         141.3053  144.5008  164.2575 C.3     1  UNL1        0.0286
      4 C         142.5902  144.3763  163.4936 C.3     1  UNL1        0.0932
      5 C         142.5657  144.0077  162.0398 C.3     1  UNL1        0.0286
      6 C         141.2563  143.7637  161.3499 C.3     1  UNL1        0.0193
      7 O         141.8973  144.2330  163.0725 O.3     1  UNL1       -0.3572
      8 C         140.7133  144.0124  162.4487 C.3     1  UNL1        0.1562
      9 N         138.6621  143.6442  161.4238 N.3     1  UNL1       -0.2926
     10 H         137.9290  143.8427  162.1047 H       1  UNL1        0.1236
     11 C         138.3602  142.2943  160.8435 C.3     1  UNL1        0.1152
     12 O         137.6611  138.7014  167.7249 O.2     1  UNL1       -0.2707
     13 C         138.0461  138.6686  166.2755 C.2     1  UNL1        0.2718
     14 C         138.5831  137.4055  165.6705 C.3     1  UNL1        0.2898
     15 O         138.9681  137.3727  164.2211 O.3     1  UNL1       -0.4628
     16 C         138.8161  138.6031  163.3767 C.ar    1  UNL1        0.1708
     17 C         139.2011  138.5703  161.9273 C.ar    1  UNL1        0.0411
     18 C         139.0491  139.8007  161.0829 C.ar    1  UNL1        0.0193
     19 C         138.5122  141.0639  161.6879 C.ar    1  UNL1        0.0765
     20 N         138.1272  141.0967  163.1373 N.ar    1  UNL1       -0.2304
     21 C         138.2792  139.8662  163.9817 C.ar    1  UNL1        0.1682
     22 N         137.8942  139.8990  165.4311 N.am    1  UNL1       -0.2639
     23 H         137.5417  140.7281  165.8282 H       1  UNL1        0.1565
     24 C         143.8995  144.6203  164.1835 C.3     1  UNL1        0.0320
     25 C         144.4260  143.6194  165.1689 C.3     1  UNL1        0.0327
     26 C         144.1809  142.1552  164.9544 C.ar    1  UNL1        0.0261
     27 C         144.9649  141.4077  163.9167 C.ar    1  UNL1        0.1566
     28 F         145.9939  142.1244  163.0936 F       1  UNL1       -0.2028
     29 C         144.7197  139.9435  163.7022 C.ar    1  UNL1        0.1281
     30 N         143.6907  139.2268  164.5253 N.ar    1  UNL1       -0.2400
     31 C         142.9068  139.9743  165.5629 C.ar    1  UNL1        0.0990
     32 C         141.8778  139.2576  166.3861 C.ar    1  UNL1        0.0254
     33 C         141.0939  140.0052  167.4237 C.ar    1  UNL1        0.0593
     34 C         141.3390  141.4694  167.6382 C.ar    1  UNL1        0.2250
     35 N         142.3680  142.1860  166.8151 N.ar    1  UNL1       -0.2104
     36 C         143.1519  141.4386  165.7775 C.ar    1  UNL1        0.1002
     37 O         140.5551  142.2168  168.6759 O.3     1  UNL1       -0.4575
     38 C         140.8363  141.9948  170.1325 C.3     1  UNL1        0.2387
     39 C         142.0311  141.1904  170.5516 C.3     1  UNL1        0.1848
     40 O         142.2035  140.7966  171.9886 O.3     1  UNL1       -0.3784
     41 H         142.3458  141.5910  172.5267 H       1  UNL1        0.2106
@<TRIPOS>BOND
     1    12    13    2
     2    13    14    1
     3    14    15    1
     4    15    16    1
     5    16    17   ar
     6    17    18   ar
     7    18    19   ar
     8    19    11    1
     9    11     9    1
    10     9     1    1
    11     1     2    1
    12     2     3    1
    13     3     4    1
    14     4    24    1
    15    24    25    1
    16    25    26    1
    17    26    27   ar
    18    27    28    1
    19    27    29   ar
    20    29    30   ar
    21    30    31   ar
    22    31    32   ar
    23    32    33   ar
    24    33    34   ar
    25    34    37    1
    26    37    38    1
    27    38    39    1
    28    39    40    1
    29    34    35   ar
    30    35    36   ar
    31     4     5    1
    32     5     6    1
    33     4     7    1
    34     7     8    1
    35    19    20   ar
    36    20    21   ar
    37    21    22    1
    38    22    13   am
    39    21    16   ar
    40     6     1    1
    41     8     1    1
    42    36    26   ar
    43    36    31   ar
    44     9    10    1
    45    40    41    1
    46    22    23    1
@<TRIPOS>MOLECULE
*****
 41 46 0 0 0
SMALL
GASTEIGER

@<TRIPOS>ATOM
      1 C         144.2884  139.7664  163.3861 C.3     1  UNL1        0.0700
      2 C         144.1699  139.2955  164.8053 C.3     1  UNL1        0.0193
      3 C         142.9594  138.5244  165.2411 C.3     1  UNL1        0.0286
      4 C         141.8673  138.2241  164.2576 C.3     1  UNL1        0.0932
      5 C         141.9857  138.6950  162.8384 C.3     1  UNL1        0.0286
      6 C         143.1964  139.4662  162.4027 C.3     1  UNL1        0.0193
      7 O         142.5116  138.6499  163.9722 O.3     1  UNL1       -0.3572
      8 C         143.6062  139.3472  163.5782 C.3     1  UNL1        0.1562
      9 N         145.4989  140.5375  162.9503 N.3     1  UNL1       -0.2926
     10 H         146.3056  140.0895  163.3850 H       1  UNL1        0.1236
     11 C         145.6030  142.0033  163.2516 C.3     1  UNL1        0.1152
     12 O         140.2540  145.6322  158.8963 O.2     1  UNL1       -0.2707
     13 C         140.8234  145.2979  160.2431 C.2     1  UNL1        0.2718
     14 C         140.1792  145.8388  161.4850 C.3     1  UNL1        0.2898
     15 O         140.7486  145.5045  162.8319 O.3     1  UNL1       -0.4628
     16 C         141.9622  144.6292  162.9368 C.ar    1  UNL1        0.1708
     17 C         142.5316  144.2949  164.2837 C.ar    1  UNL1        0.0411
     18 C         143.7452  143.4196  164.3886 C.ar    1  UNL1        0.0193
     19 C         144.3894  142.8786  163.1467 C.ar    1  UNL1        0.0765
     20 N         143.8200  143.2129  161.7998 N.ar    1  UNL1       -0.2304
     21 C         142.6064  144.0883  161.6949 C.ar    1  UNL1        0.1682
     22 N         142.0370  144.4226  160.3481 N.am    1  UNL1       -0.2639
     23 H         142.4598  144.0676  159.5330 H       1  UNL1        0.1565
     24 C         140.6567  137.4530  164.6934 C.3     1  UNL1        0.0320
     25 C         139.4769  138.1744  165.2744 C.3     1  UNL1        0.0327
     26 C         139.5027  139.6682  165.4080 C.ar    1  UNL1        0.0261
     27 C         140.0180  140.2998  166.6672 C.ar    1  UNL1        0.1566
     28 F         140.5075  139.4376  167.7928 F       1  UNL1       -0.2028
     29 C         140.0437  141.7936  166.8009 C.ar    1  UNL1        0.1281
     30 N         139.5542  142.6559  165.6753 N.ar    1  UNL1       -0.2400
     31 C         139.0389  142.0243  164.4161 C.ar    1  UNL1        0.0990
     32 C         138.5494  142.8866  163.2906 C.ar    1  UNL1        0.0254
     33 C         138.0341  142.2550  162.0314 C.ar    1  UNL1        0.0593
     34 C         138.0083  140.7612  161.8977 C.ar    1  UNL1        0.2250
     35 N         138.4979  139.8990  163.0233 N.ar    1  UNL1       -0.2104
     36 C         139.0131  140.5305  164.2825 C.ar    1  UNL1        0.1002
     37 O         137.4930  140.1297  160.6385 O.3     1  UNL1       -0.4575
     38 C         138.4514  139.7085  159.5642 C.3     1  UNL1        0.2387
     39 C         139.3219  138.5036  159.7659 C.3     1  UNL1        0.1848
     40 O         139.1579  137.6569  160.9932 O.3     1  UNL1       -0.3784
     41 H         139.4084  138.1712  161.7766 H       1  UNL1        0.2106
@<TRIPOS>BOND
     1    12    13    2
     2    13    14    1
     3    14    15    1
     4    15    16    1
     5    16    17   ar
     6    17    18   ar
     7    18    19   ar
     8    19    11    1
     9    11     9    1
    10     9     1    1
    11     1     2    1
    12     2     3    1
    13     3     4    1
    14     4    24    1
    15    24    25    1
    16    25    26    1
    17    26    27   ar
    18    27    28    1
    19    27    29   ar
    20    29    30   ar
    21    30    31   ar
    22    31    32   ar
    23    32    33   ar
    24    33    34   ar
    25    34    37    1
    26    37    38    1
    27    38    39    1
    28    39    40    1
    29    34    35   ar
    30    35    36   ar
    31     4     5    1
    32     5     6    1
    33     4     7    1
    34     7     8    1
    35    19    20   ar
    36    20    21   ar
    37    21    22    1
    38    22    13   am
    39    21    16   ar
    40     6     1    1
    41     8     1    1
    42    36    26   ar
    43    36    31   ar
    44     9    10    1
    45    40    41    1
    46    22    23    1
@<TRIPOS>MOLECULE
*****
 41 46 0 0 0
SMALL
GASTEIGER

@<TRIPOS>ATOM
      1 C         142.1057  137.9527  163.2195 C.3     1  UNL1        0.0700
      2 C         143.0618  138.3061  162.1190 C.3     1  UNL1        0.0193
      3 C         144.2317  139.2015  162.4007 C.3     1  UNL1        0.0286
      4 C         144.4457  139.7435  163.7829 C.3     1  UNL1        0.0932
      5 C         143.4896  139.3902  164.8834 C.3     1  UNL1        0.0286
      6 C         142.3196  138.4947  164.6016 C.3     1  UNL1        0.0193
      7 O         143.7903  139.2566  163.6768 O.3     1  UNL1       -0.3572
      8 C         142.7323  138.4470  163.4221 C.3     1  UNL1        0.1562
      9 N         140.9357  137.0573  162.9378 N.3     1  UNL1       -0.2926
     10 H         141.2227  136.4238  162.1917 H       1  UNL1        0.1236
     11 C         139.6215  137.6489  162.5219 C.3     1  UNL1        0.1152
     12 O         138.9159  145.3786  161.8121 O.2     1  UNL1       -0.2707
     13 C         138.7129  144.1232  162.6076 C.2     1  UNL1        0.2718
     14 C         138.0718  144.1891  163.9620 C.3     1  UNL1        0.2898
     15 O         137.8688  142.9337  164.7576 O.3     1  UNL1       -0.4628
     16 C         138.3070  141.6125  164.1987 C.ar    1  UNL1        0.1708
     17 C         138.1040  140.3572  164.9942 C.ar    1  UNL1        0.0411
     18 C         138.5422  139.0360  164.4353 C.ar    1  UNL1        0.0193
     19 C         139.1833  138.9701  163.0808 C.ar    1  UNL1        0.0765
     20 N         139.3863  140.2255  162.2853 N.ar    1  UNL1       -0.2304
     21 C         138.9481  141.5467  162.8442 C.ar    1  UNL1        0.1682
     22 N         139.1511  142.8021  162.0487 N.am    1  UNL1       -0.2639
     23 H         139.5719  142.7588  161.1597 H       1  UNL1        0.1565
     24 C         145.6156  140.6389  164.0646 C.3     1  UNL1        0.0320
     25 C         145.7434  141.9526  163.3519 C.3     1  UNL1        0.0327
     26 C         144.5342  142.8167  163.1492 C.ar    1  UNL1        0.0261
     27 C         143.9433  143.5636  164.3082 C.ar    1  UNL1        0.1566
     28 F         144.5617  143.4463  165.6697 F       1  UNL1       -0.2028
     29 C         142.7341  144.4276  164.1055 C.ar    1  UNL1        0.1281
     30 N         142.1157  144.5448  162.7439 N.ar    1  UNL1       -0.2400
     31 C         142.7065  143.7980  161.5850 C.ar    1  UNL1        0.0990
     32 C         142.0882  143.9152  160.2235 C.ar    1  UNL1        0.0254
     33 C         142.6791  143.1683  159.0645 C.ar    1  UNL1        0.0593
     34 C         143.8883  142.3043  159.2672 C.ar    1  UNL1        0.2250
     35 N         144.5067  142.1870  160.6288 N.ar    1  UNL1       -0.2104
     36 C         143.9158  142.9339  161.7877 C.ar    1  UNL1        0.1002
     37 O         144.4792  141.5574  158.1083 O.3     1  UNL1       -0.4575
     38 C         145.5130  142.2135  157.2419 C.3     1  UNL1        0.2387
     39 C         146.1721  141.4361  156.1412 C.3     1  UNL1        0.1848
     40 O         146.0629  139.9404  156.1102 O.3     1  UNL1       -0.3784
     41 H         146.5285  139.5662  156.8745 H       1  UNL1        0.2106
@<TRIPOS>BOND
     1    12    13    2
     2    13    14    1
     3    14    15    1
     4    15    16    1
     5    16    17   ar
     6    17    18   ar
     7    18    19   ar
     8    19    11    1
     9    11     9    1
    10     9     1    1
    11     1     2    1
    12     2     3    1
    13     3     4    1
    14     4    24    1
    15    24    25    1
    16    25    26    1
    17    26    27   ar
    18    27    28    1
    19    27    29   ar
    20    29    30   ar
    21    30    31   ar
    22    31    32   ar
    23    32    33   ar
    24    33    34   ar
    25    34    37    1
    26    37    38    1
    27    38    39    1
    28    39    40    1
    29    34    35   ar
    30    35    36   ar
    31     4     5    1
    32     5     6    1
    33     4     7    1
    34     7     8    1
    35    19    20   ar
    36    20    21   ar
    37    21    22    1
    38    22    13   am
    39    21    16   ar
    40     6     1    1
    41     8     1    1
    42    36    26   ar
    43    36    31   ar
    44     9    10    1
    45    40    41    1
    46    22    23    1
@<TRIPOS>MOLECULE
*****
 41 46 0 0 0
SMALL
GASTEIGER

@<TRIPOS>ATOM
      1 C         139.9087  137.9964  162.4370 C.3     1  UNL1        0.0700
      2 C         141.3301  138.3544  162.1185 C.3     1  UNL1        0.0193
      3 C         142.3673  138.3430  163.2021 C.3     1  UNL1        0.0286
      4 C         141.9830  137.9736  164.6042 C.3     1  UNL1        0.0932
      5 C         140.5616  137.6156  164.9227 C.3     1  UNL1        0.0286
      6 C         139.5244  137.6270  163.8391 C.3     1  UNL1        0.0193
      7 O         141.3797  137.9658  164.0440 O.3     1  UNL1       -0.3572
      8 C         140.4419  137.9760  163.0641 C.3     1  UNL1        0.1562
      9 N         138.8716  138.0078  161.3534 N.3     1  UNL1       -0.2926
     10 H         139.3660  138.1593  160.4742 H       1  UNL1        0.1236
     11 C         137.7515  139.0046  161.3977 C.3     1  UNL1        0.1152
     12 O         141.7189  145.3684  159.2737 O.2     1  UNL1       -0.2707
     13 C         140.6977  144.7068  160.1508 C.2     1  UNL1        0.2718
     14 C         139.9776  145.5048  161.1970 C.3     1  UNL1        0.2898
     15 O         138.9563  144.8432  162.0741 O.3     1  UNL1       -0.4628
     16 C         138.6551  143.3836  161.9050 C.ar    1  UNL1        0.1708
     17 C         137.6338  142.7220  162.7821 C.ar    1  UNL1        0.0411
     18 C         137.3326  141.2624  162.6130 C.ar    1  UNL1        0.0193
     19 C         138.0527  140.4642  161.5668 C.ar    1  UNL1        0.0765
     20 N         139.0740  141.1258  160.6897 N.ar    1  UNL1       -0.2304
     21 C         139.3752  142.5855  160.8588 C.ar    1  UNL1        0.1682
     22 N         140.3965  143.2471  159.9818 N.am    1  UNL1       -0.2639
     23 H         140.8691  142.7233  159.2951 H       1  UNL1        0.1565
     24 C         143.0201  137.9623  165.6878 C.3     1  UNL1        0.0320
     25 C         143.4241  139.2447  166.3529 C.3     1  UNL1        0.0327
     26 C         142.3965  140.0811  167.0559 C.ar    1  UNL1        0.0261
     27 C         141.9851  139.7422  168.4580 C.ar    1  UNL1        0.1566
     28 F         142.6014  138.5669  169.1571 F       1  UNL1       -0.2028
     29 C         140.9575  140.5786  169.1611 C.ar    1  UNL1        0.1281
     30 N         140.3411  141.7540  168.4620 N.ar    1  UNL1       -0.2400
     31 C         140.7524  142.0929  167.0599 C.ar    1  UNL1        0.0990
     32 C         140.1361  143.2682  166.3608 C.ar    1  UNL1        0.0254
     33 C         140.5474  143.6071  164.9586 C.ar    1  UNL1        0.0593
     34 C         141.5751  142.7707  164.2556 C.ar    1  UNL1        0.2250
     35 N         142.1914  141.5953  164.9547 N.ar    1  UNL1       -0.2104
     36 C         141.7801  141.2564  166.3568 C.ar    1  UNL1        0.1002
     37 O         141.9864  143.1096  162.8535 O.3     1  UNL1       -0.4575
     38 C         143.3449  143.6881  162.5895 C.3     1  UNL1        0.2387
     39 C         144.1728  143.1693  161.4512 C.3     1  UNL1        0.1848
     40 O         143.5616  143.0111  160.0905 O.3     1  UNL1       -0.3784
     41 H         142.8783  142.3233  160.1210 H       1  UNL1        0.2106
@<TRIPOS>BOND
     1    12    13    2
     2    13    14    1
     3    14    15    1
     4    15    16    1
     5    16    17   ar
     6    17    18   ar
     7    18    19   ar
     8    19    11    1
     9    11     9    1
    10     9     1    1
    11     1     2    1
    12     2     3    1
    13     3     4    1
    14     4    24    1
    15    24    25    1
    16    25    26    1
    17    26    27   ar
    18    27    28    1
    19    27    29   ar
    20    29    30   ar
    21    30    31   ar
    22    31    32   ar
    23    32    33   ar
    24    33    34   ar
    25    34    37    1
    26    37    38    1
    27    38    39    1
    28    39    40    1
    29    34    35   ar
    30    35    36   ar
    31     4     5    1
    32     5     6    1
    33     4     7    1
    34     7     8    1
    35    19    20   ar
    36    20    21   ar
    37    21    22    1
    38    22    13   am
    39    21    16   ar
    40     6     1    1
    41     8     1    1
    42    36    26   ar
    43    36    31   ar
    44     9    10    1
    45    40    41    1
    46    22    23    1
@<TRIPOS>MOLECULE
*****
 41 46 0 0 0
SMALL
GASTEIGER

@<TRIPOS>ATOM
      1 C         142.6059  137.9900  162.5648 C.3     1  UNL1        0.0700
      2 C         142.7076  138.0786  164.0587 C.3     1  UNL1        0.0193
      3 C         141.4782  137.9266  164.9045 C.3     1  UNL1        0.0286
      4 C         140.1470  137.6860  164.2563 C.3     1  UNL1        0.0932
      5 C         140.0453  137.5974  162.7624 C.3     1  UNL1        0.0286
      6 C         141.2748  137.7494  161.9166 C.3     1  UNL1        0.0193
      7 O         140.7928  137.7629  163.7513 O.3     1  UNL1       -0.3572
      8 C         141.9044  137.9004  162.9865 C.3     1  UNL1        0.1562
      9 N         143.8353  138.1421  161.7190 N.3     1  UNL1       -0.2926
     10 H         144.6286  137.8754  162.3020 H       1  UNL1        0.1236
     11 C         144.1701  139.4736  161.1148 C.3     1  UNL1        0.1152
     12 O         140.1600  146.0725  162.1744 O.2     1  UNL1       -0.2707
     13 C         141.2494  145.1323  162.5977 C.2     1  UNL1        0.2718
     14 C         142.0914  145.4513  163.7973 C.3     1  UNL1        0.2898
     15 O         143.1808  144.5110  164.2205 O.3     1  UNL1       -0.4628
     16 C         143.4281  143.2517  163.4441 C.ar    1  UNL1        0.1708
     17 C         144.5175  142.3114  163.8673 C.ar    1  UNL1        0.0411
     18 C         144.7649  141.0521  163.0909 C.ar    1  UNL1        0.0193
     19 C         143.9228  140.7330  161.8912 C.ar    1  UNL1        0.0765
     20 N         142.8334  141.6733  161.4680 N.ar    1  UNL1       -0.2304
     21 C         142.5861  142.9326  162.2445 C.ar    1  UNL1        0.1682
     22 N         141.4967  143.8729  161.8213 N.am    1  UNL1       -0.2639
     23 H         140.9440  143.6635  161.0339 H       1  UNL1        0.1565
     24 C         138.9176  137.5340  165.1021 C.3     1  UNL1        0.0320
     25 C         138.0768  138.7333  165.4256 C.3     1  UNL1        0.0327
     26 C         138.5738  140.1092  165.0941 C.ar    1  UNL1        0.0261
     27 C         138.1972  140.7488  163.7906 C.ar    1  UNL1        0.1566
     28 F         137.3237  140.0125  162.8186 F       1  UNL1       -0.2028
     29 C         138.6942  142.1247  163.4591 C.ar    1  UNL1        0.1281
     30 N         139.5678  142.8610  164.4311 N.ar    1  UNL1       -0.2400
     31 C         139.9443  142.2214  165.7346 C.ar    1  UNL1        0.0990
     32 C         140.8179  142.9577  166.7066 C.ar    1  UNL1        0.0254
     33 C         141.1944  142.3180  168.0102 C.ar    1  UNL1        0.0593
     34 C         140.6974  140.9422  168.3416 C.ar    1  UNL1        0.2250
     35 N         139.8239  140.2059  167.3696 N.ar    1  UNL1       -0.2104
     36 C         139.4473  140.8455  166.0661 C.ar    1  UNL1        0.1002
     37 O         141.0740  140.3026  169.6451 O.3     1  UNL1       -0.4575
     38 C         142.1646  140.8981  170.4853 C.3     1  UNL1        0.2387
     39 C         141.8663  142.0566  171.3903 C.3     1  UNL1        0.1848
     40 O         140.5058  142.1962  172.0062 O.3     1  UNL1       -0.3784
     41 H         139.8510  142.3614  171.3099 H       1  UNL1        0.2106
@<TRIPOS>BOND
     1    12    13    2
     2    13    14    1
     3    14    15    1
     4    15    16    1
     5    16    17   ar
     6    17    18   ar
     7    18    19   ar
     8    19    11    1
     9    11     9    1
    10     9     1    1
    11     1     2    1
    12     2     3    1
    13     3     4    1
    14     4    24    1
    15    24    25    1
    16    25    26    1
    17    26    27   ar
    18    27    28    1
    19    27    29   ar
    20    29    30   ar
    21    30    31   ar
    22    31    32   ar
    23    32    33   ar
    24    33    34   ar
    25    34    37    1
    26    37    38    1
    27    38    39    1
    28    39    40    1
    29    34    35   ar
    30    35    36   ar
    31     4     5    1
    32     5     6    1
    33     4     7    1
    34     7     8    1
    35    19    20   ar
    36    20    21   ar
    37    21    22    1
    38    22    13   am
    39    21    16   ar
    40     6     1    1
    41     8     1    1
    42    36    26   ar
    43    36    31   ar
    44     9    10    1
    45    40    41    1
    46    22    23    1
@<TRIPOS>MOLECULE
*****
 41 46 0 0 0
SMALL
GASTEIGER

@<TRIPOS>ATOM
      1 C         137.7872  142.4251  163.1176 C.3     1  UNL1        0.0700
      2 C         137.9272  141.2647  162.1775 C.3     1  UNL1        0.0193
      3 C         138.2398  139.8990  162.7131 C.3     1  UNL1        0.0286
      4 C         138.4125  139.6935  164.1889 C.3     1  UNL1        0.0932
      5 C         138.2725  140.8539  165.1291 C.3     1  UNL1        0.0286
      6 C         137.9598  142.2197  164.5934 C.3     1  UNL1        0.0193
      7 O         138.2418  140.4604  163.9424 O.3     1  UNL1       -0.3572
      8 C         137.9591  141.6954  163.4581 C.3     1  UNL1        0.1562
      9 N         137.4746  143.7909  162.5820 N.3     1  UNL1       -0.2926
     10 H         137.2422  143.6742  161.5957 H       1  UNL1        0.1236
     11 C         138.5030  144.8801  162.6587 C.3     1  UNL1        0.1152
     12 O         144.3605  141.4706  158.8097 O.2     1  UNL1       -0.2707
     13 C         143.8655  142.2719  159.9771 C.2     1  UNL1        0.2718
     14 C         144.8280  142.7381  161.0289 C.3     1  UNL1        0.2898
     15 O         144.3330  143.5395  162.1963 O.3     1  UNL1       -0.4628
     16 C         142.8755  143.8746  162.3119 C.ar    1  UNL1        0.1708
     17 C         142.3805  144.6760  163.4793 C.ar    1  UNL1        0.0411
     18 C         140.9231  145.0112  163.5949 C.ar    1  UNL1        0.0193
     19 C         139.9605  144.5450  162.5431 C.ar    1  UNL1        0.0765
     20 N         140.4555  143.7436  161.3757 N.ar    1  UNL1       -0.2304
     21 C         141.9131  143.4085  161.2601 C.ar    1  UNL1        0.1682
     22 N         142.4081  142.6071  160.0928 N.am    1  UNL1       -0.2639
     23 H         141.7763  142.3011  159.4024 H       1  UNL1        0.1565
     24 C         138.7251  138.3278  164.7246 C.3     1  UNL1        0.0320
     25 C         140.1315  137.9776  165.1112 C.3     1  UNL1        0.0327
     26 C         141.2827  138.7357  164.5197 C.ar    1  UNL1        0.0261
     27 C         141.8247  138.3482  163.1758 C.ar    1  UNL1        0.1566
     28 F         141.2154  137.2025  162.4233 F       1  UNL1       -0.2028
     29 C         142.9760  139.1063  162.5843 C.ar    1  UNL1        0.1281
     30 N         143.5853  140.2519  163.3368 N.ar    1  UNL1       -0.2400
     31 C         143.0434  140.6395  164.6807 C.ar    1  UNL1        0.0990
     32 C         143.6528  141.7851  165.4332 C.ar    1  UNL1        0.0254
     33 C         143.1108  142.1726  166.7771 C.ar    1  UNL1        0.0593
     34 C         141.9595  141.4146  167.3685 C.ar    1  UNL1        0.2250
     35 N         141.3502  140.2689  166.6161 N.ar    1  UNL1       -0.2104
     36 C         141.8921  139.8814  165.2722 C.ar    1  UNL1        0.1002
     37 O         141.4176  141.8021  168.7124 O.3     1  UNL1       -0.4575
     38 C         141.0698  140.7420  169.7150 C.3     1  UNL1        0.2387
     39 C         141.3109  140.9832  171.1758 C.3     1  UNL1        0.1848
     40 O         140.6024  142.1035  171.8779 O.3     1  UNL1       -0.3784
     41 H         140.9065  142.9525  171.5208 H       1  UNL1        0.2106
@<TRIPOS>BOND
     1    12    13    2
     2    13    14    1
     3    14    15    1
     4    15    16    1
     5    16    17   ar
     6    17    18   ar
     7    18    19   ar
     8    19    11    1
     9    11     9    1
    10     9     1    1
    11     1     2    1
    12     2     3    1
    13     3     4    1
    14     4    24    1
    15    24    25    1
    16    25    26    1
    17    26    27   ar
    18    27    28    1
    19    27    29   ar
    20    29    30   ar
    21    30    31   ar
    22    31    32   ar
    23    32    33   ar
    24    33    34   ar
    25    34    37    1
    26    37    38    1
    27    38    39    1
    28    39    40    1
    29    34    35   ar
    30    35    36   ar
    31     4     5    1
    32     5     6    1
    33     4     7    1
    34     7     8    1
    35    19    20   ar
    36    20    21   ar
    37    21    22    1
    38    22    13   am
    39    21    16   ar
    40     6     1    1
    41     8     1    1
    42    36    26   ar
    43    36    31   ar
    44     9    10    1
    45    40    41    1
    46    22    23    1
