@<TRIPOS>MOLECULE
*****
 39 44 0 0 0
SMALL
GASTEIGER

@<TRIPOS>ATOM
      1 C         139.9745  145.8904  160.7613 C.3     1  UNL1        0.0843
      2 N         140.3586  145.1465  162.0059 N.3     1  UNL1       -0.2713
      3 C         139.2299  144.7990  162.9308 C.3     1  UNL1        0.0768
      4 C         139.2844  144.0676  164.2393 C.3     1  UNL1        0.0434
      5 C         140.4810  143.5032  164.9460 C.ar    1  UNL1       -0.0225
      6 C         140.0947  142.8452  166.2376 C.ar    1  UNL1        0.0178
      7 C         141.1461  142.2147  167.1019 C.ar    1  UNL1        0.1190
      8 N         141.0672  141.4987  168.4176 N.ar    1  UNL1       -0.2050
      9 C         142.4560  141.0837  168.8036 C.ar    1  UNL1        0.3031
     10 O         143.3932  141.5433  167.7265 O.2     1  UNL1       -0.4312
     11 C         142.5838  142.2422  166.6748 C.ar    1  UNL1        0.1704
     12 C         142.9700  142.9002  165.3833 C.ar    1  UNL1        0.0664
     13 BR        144.4076  142.9277  164.9562 Br      1  UNL1       -0.0461
     14 C         141.9186  143.5307  164.5190 C.ar    1  UNL1       -0.0154
     15 C         142.5147  144.1294  163.2795 C.3     1  UNL1        0.0439
     16 C         141.8204  144.8486  162.1612 C.3     1  UNL1        0.0768
     17 C         142.8399  140.3398  170.0483 C.3     1  UNL1        0.4696
     18 F         143.2239  139.5960  171.2929 F       1  UNL1       -0.1619
     19 F         143.9455  141.3232  170.2949 F       1  UNL1       -0.1619
     20 F         141.7344  139.3565  169.8017 F       1  UNL1       -0.1619
     21 C         140.6013  145.5284  159.4476 C.3     1  UNL1        0.0824
     22 S         140.1637  144.2895  158.7238 S.3     1  UNL1       -0.0742
     23 C         139.6808  141.0503  160.8071 C.ar    1  UNL1        0.1669
     24 N         138.2570  141.4622  160.5773 N.ar    1  UNL1       -0.1282
     25 N         138.2644  142.7257  159.7690 N.ar    1  UNL1       -0.1221
     26 C         139.6931  143.0948  159.4991 C.ar    1  UNL1        0.1933
     27 N         140.5685  142.0594  160.1407 N.ar    1  UNL1       -0.2884
     28 C         142.0681  142.0369  160.1196 C.3     1  UNL1        0.1340
     29 C         137.9351  138.7378  167.0404 C.3     1  UNL1        0.0521
     30 C         138.4856  139.0138  165.6726 C.ar    1  UNL1        0.0593
     31 C         138.0293  140.2225  164.9103 C.ar    1  UNL1        0.0147
     32 C         138.5799  140.4984  163.5425 C.ar    1  UNL1        0.0028
     33 C         139.5866  139.5657  162.9370 C.ar    1  UNL1        0.0206
     34 C         140.1371  139.8417  161.5693 C.ar    1  UNL1        0.0374
     35 C         141.1439  138.9091  160.9638 C.ar    1  UNL1        0.0031
     36 C         141.6001  137.7005  161.7261 C.ar    1  UNL1        0.0016
     37 C         141.0496  137.4245  163.0939 C.ar    1  UNL1        0.0191
     38 C         140.0428  138.3571  163.6994 C.ar    1  UNL1        0.0810
     39 N         139.4924  138.0811  165.0671 N.ar    1  UNL1       -0.2497
@<TRIPOS>BOND
     1    29    30    1
     2    30    31   ar
     3    31    32   ar
     4    32    33   ar
     5    33    34   ar
     6    34    23    1
     7    23    24   ar
     8    24    25   ar
     9    25    26   ar
    10    26    22    1
    11    22    21    1
    12    21     1    1
    13     1     2    1
    14     2     3    1
    15     3     4    1
    16     4     5    1
    17     5     6   ar
    18     6     7   ar
    19     7     8   ar
    20     8     9   ar
    21     9    17    1
    22    17    18    1
    23    17    19    1
    24    17    20    1
    25     9    10   ar
    26    10    11   ar
    27    11    12   ar
    28    12    13    1
    29    12    14   ar
    30    14    15    1
    31    15    16    1
    32    26    27   ar
    33    27    28    1
    34    34    35   ar
    35    35    36   ar
    36    36    37   ar
    37    37    38   ar
    38    38    39   ar
    39    39    30   ar
    40    38    33   ar
    41    27    23   ar
    42    16     2    1
    43    14     5   ar
    44    11     7   ar
@<TRIPOS>MOLECULE
*****
 39 44 0 0 0
SMALL
GASTEIGER

@<TRIPOS>ATOM
      1 C         139.8211  145.9700  160.9372 C.3     1  UNL1        0.0843
      2 N         140.2359  145.2034  162.1580 N.3     1  UNL1       -0.2713
      3 C         139.1189  144.7339  163.0423 C.3     1  UNL1        0.0768
      4 C         139.2031  143.9527  164.3201 C.3     1  UNL1        0.0434
      5 C         140.4248  143.4481  165.0290 C.ar    1  UNL1       -0.0225
      6 C         140.0643  142.7082  166.2831 C.ar    1  UNL1        0.0178
      7 C         141.1432  142.1203  167.1435 C.ar    1  UNL1        0.1190
      8 N         141.0929  141.3443  168.4262 N.ar    1  UNL1       -0.2050
      9 C         142.5012  141.0166  168.8252 C.ar    1  UNL1        0.3031
     10 O         143.4219  141.5901  167.7892 O.2     1  UNL1       -0.4312
     11 C         142.5826  142.2722  166.7499 C.ar    1  UNL1        0.1704
     12 C         142.9431  143.0121  165.4958 C.ar    1  UNL1        0.0664
     13 BR        144.3825  143.1640  165.1022 Br      1  UNL1       -0.0461
     14 C         141.8642  143.6000  164.6354 C.ar    1  UNL1       -0.0154
     15 C         142.4374  144.2941  163.4355 C.3     1  UNL1        0.0439
     16 C         141.7127  145.0077  162.3330 C.3     1  UNL1        0.0768
     17 C         142.9159  140.2500  170.0460 C.3     1  UNL1        0.4696
     18 F         143.3307  139.4834  171.2668 F       1  UNL1       -0.1619
     19 F         143.9716  141.2765  170.3321 F       1  UNL1       -0.1619
     20 F         141.8604  139.2234  169.7600 F       1  UNL1       -0.1619
     21 C         140.3809  145.6030  159.5949 C.3     1  UNL1        0.0824
     22 S         140.0163  144.2922  158.9632 S.3     1  UNL1       -0.0742
     23 C         140.5313  140.9419  160.8543 C.ar    1  UNL1        0.1669
     24 N         141.8714  141.1164  160.2035 N.ar    1  UNL1       -0.1282
     25 N         141.8417  142.3926  159.4159 N.ar    1  UNL1       -0.1221
     26 C         140.4831  143.0070  159.5799 C.ar    1  UNL1        0.1933
     27 N         139.6732  142.1104  160.4688 N.ar    1  UNL1       -0.2884
     28 C         138.2544  142.3416  160.8972 C.3     1  UNL1        0.1340
     29 C         143.5947  138.1734  166.3498 C.3     1  UNL1        0.0521
     30 C         142.7263  138.5800  165.1963 C.ar    1  UNL1        0.0593
     31 C         143.1365  139.7223  164.3148 C.ar    1  UNL1        0.0147
     32 C         142.2680  140.1289  163.1613 C.ar    1  UNL1        0.0028
     33 C         140.9895  139.3931  162.8891 C.ar    1  UNL1        0.0206
     34 C         140.1212  139.7996  161.7357 C.ar    1  UNL1        0.0374
     35 C         138.8426  139.0639  161.4635 C.ar    1  UNL1        0.0031
     36 C         138.4326  137.9216  162.3450 C.ar    1  UNL1        0.0016
     37 C         139.3009  137.5150  163.4985 C.ar    1  UNL1        0.0191
     38 C         140.5794  138.2508  163.7706 C.ar    1  UNL1        0.0810
     39 N         141.4478  137.8442  164.9241 N.ar    1  UNL1       -0.2497
@<TRIPOS>BOND
     1    29    30    1
     2    30    31   ar
     3    31    32   ar
     4    32    33   ar
     5    33    34   ar
     6    34    23    1
     7    23    24   ar
     8    24    25   ar
     9    25    26   ar
    10    26    22    1
    11    22    21    1
    12    21     1    1
    13     1     2    1
    14     2     3    1
    15     3     4    1
    16     4     5    1
    17     5     6   ar
    18     6     7   ar
    19     7     8   ar
    20     8     9   ar
    21     9    17    1
    22    17    18    1
    23    17    19    1
    24    17    20    1
    25     9    10   ar
    26    10    11   ar
    27    11    12   ar
    28    12    13    1
    29    12    14   ar
    30    14    15    1
    31    15    16    1
    32    26    27   ar
    33    27    28    1
    34    34    35   ar
    35    35    36   ar
    36    36    37   ar
    37    37    38   ar
    38    38    39   ar
    39    39    30   ar
    40    38    33   ar
    41    27    23   ar
    42    16     2    1
    43    14     5   ar
    44    11     7   ar
@<TRIPOS>MOLECULE
*****
 39 44 0 0 0
SMALL
GASTEIGER

@<TRIPOS>ATOM
      1 C         143.9610  137.7390  161.0570 C.3     1  UNL1        0.0843
      2 N         143.4086  138.4239  162.2719 N.3     1  UNL1       -0.2713
      3 C         144.2686  139.5048  162.8570 C.3     1  UNL1        0.0768
      4 C         144.0016  140.3662  164.0557 C.3     1  UNL1        0.0434
      5 C         142.8090  140.3593  164.9653 C.ar    1  UNL1       -0.0225
      6 C         142.9408  141.3874  166.0496 C.ar    1  UNL1        0.0178
      7 C         141.8524  141.5457  167.0695 C.ar    1  UNL1        0.1190
      8 N         141.7041  142.4658  168.2447 N.ar    1  UNL1       -0.2050
      9 C         140.3922  142.1647  168.9067 C.ar    1  UNL1        0.3031
     10 O         139.7296  141.0584  168.1406 O.2     1  UNL1       -0.4312
     11 C         140.6320  140.6758  167.0051 C.ar    1  UNL1        0.1704
     12 C         140.5001  139.6477  165.9208 C.ar    1  UNL1        0.0664
     13 BR        139.2798  138.7779  165.8565 Br      1  UNL1       -0.0461
     14 C         141.5886  139.4895  164.9010 C.ar    1  UNL1       -0.0154
     15 C         141.2595  138.4116  163.9110 C.3     1  UNL1        0.0439
     16 C         142.0696  137.9374  162.7410 C.3     1  UNL1        0.0768
     17 C         139.8400  142.8497  170.1216 C.3     1  UNL1        0.4696
     18 F         139.2877  143.5346  171.3364 F       1  UNL1       -0.1619
     19 F         138.8952  141.7048  170.3376 F       1  UNL1       -0.1619
     20 F         140.7847  143.9946  169.9056 F       1  UNL1       -0.1619
     21 C         143.0369  137.2881  159.9650 C.3     1  UNL1        0.0824
     22 S         142.6495  138.2378  158.8704 S.3     1  UNL1       -0.0742
     23 C         140.6275  141.4471  159.6932 C.ar    1  UNL1        0.1669
     24 N         139.5234  140.4809  159.3814 N.ar    1  UNL1       -0.1282
     25 N         140.1464  139.1611  159.0352 N.ar    1  UNL1       -0.1221
     26 C         141.6357  139.3116  159.1331 C.ar    1  UNL1        0.1933
     27 N         141.9330  140.7245  159.5397 N.ar    1  UNL1       -0.2884
     28 C         143.2964  141.3116  159.7551 C.3     1  UNL1        0.1340
     29 C         139.1547  144.2947  165.7736 C.3     1  UNL1        0.0521
     30 C         139.4801  143.9420  164.3525 C.ar    1  UNL1        0.0593
     31 C         139.6513  142.5053  163.9567 C.ar    1  UNL1        0.0147
     32 C         139.9767  142.1526  162.5354 C.ar    1  UNL1        0.0028
     33 C         140.1309  143.2365  161.5101 C.ar    1  UNL1        0.0206
     34 C         140.4563  142.8838  160.0890 C.ar    1  UNL1        0.0374
     35 C         140.6105  143.9677  159.0636 C.ar    1  UNL1        0.0031
     36 C         140.4393  145.4044  159.4595 C.ar    1  UNL1        0.0016
     37 C         140.1139  145.7571  160.8807 C.ar    1  UNL1        0.0191
     38 C         139.9597  144.6732  161.9060 C.ar    1  UNL1        0.0810
     39 N         139.6343  145.0259  163.3271 N.ar    1  UNL1       -0.2497
@<TRIPOS>BOND
     1    29    30    1
     2    30    31   ar
     3    31    32   ar
     4    32    33   ar
     5    33    34   ar
     6    34    23    1
     7    23    24   ar
     8    24    25   ar
     9    25    26   ar
    10    26    22    1
    11    22    21    1
    12    21     1    1
    13     1     2    1
    14     2     3    1
    15     3     4    1
    16     4     5    1
    17     5     6   ar
    18     6     7   ar
    19     7     8   ar
    20     8     9   ar
    21     9    17    1
    22    17    18    1
    23    17    19    1
    24    17    20    1
    25     9    10   ar
    26    10    11   ar
    27    11    12   ar
    28    12    13    1
    29    12    14   ar
    30    14    15    1
    31    15    16    1
    32    26    27   ar
    33    27    28    1
    34    34    35   ar
    35    35    36   ar
    36    36    37   ar
    37    37    38   ar
    38    38    39   ar
    39    39    30   ar
    40    38    33   ar
    41    27    23   ar
    42    16     2    1
    43    14     5   ar
    44    11     7   ar
@<TRIPOS>MOLECULE
*****
 39 44 0 0 0
SMALL
GASTEIGER

@<TRIPOS>ATOM
      1 C         142.0635  142.1840  169.1282 C.3     1  UNL1        0.0843
      2 N         141.8932  142.6212  167.7035 N.3     1  UNL1       -0.2713
      3 C         143.1436  142.6414  166.8751 C.3     1  UNL1        0.0768
      4 C         143.3047  143.0257  165.4341 C.3     1  UNL1        0.0434
      5 C         142.2552  143.4847  164.4657 C.ar    1  UNL1       -0.0225
      6 C         142.8427  143.7693  163.1151 C.ar    1  UNL1        0.0178
      7 C         141.9604  144.2419  161.9979 C.ar    1  UNL1        0.1190
      8 N         142.2526  144.5995  160.5708 N.ar    1  UNL1       -0.2050
      9 C         140.9635  145.0086  159.9221 C.ar    1  UNL1        0.3031
     10 O         139.8745  144.9038  160.9483 O.2     1  UNL1       -0.4312
     11 C         140.4906  144.4300  162.2312 C.ar    1  UNL1        0.1704
     12 C         139.9031  144.1454  163.5818 C.ar    1  UNL1        0.0664
     13 BR        138.4334  144.3335  163.8151 Br      1  UNL1       -0.0461
     14 C         140.7854  143.6728  164.6990 C.ar    1  UNL1       -0.0154
     15 C         140.0021  143.4483  165.9584 C.3     1  UNL1        0.0439
     16 C         140.4952  142.9803  167.2955 C.3     1  UNL1        0.0768
     17 C         140.7933  145.4458  158.4973 C.3     1  UNL1        0.4696
     18 F         140.6231  145.8829  157.0727 F       1  UNL1       -0.1619
     19 F         139.6662  146.3462  158.9082 F       1  UNL1       -0.1619
     20 F         141.9204  144.5454  158.0864 F       1  UNL1       -0.1619
     21 C         142.9286  141.0022  169.4518 C.3     1  UNL1        0.0824
     22 S         142.4603  139.6164  169.1192 S.3     1  UNL1       -0.0742
     23 C         141.7400  138.6475  165.4303 C.ar    1  UNL1        0.1669
     24 N         143.1660  138.2046  165.5733 N.ar    1  UNL1       -0.1282
     25 N         143.6094  138.5136  166.9725 N.ar    1  UNL1       -0.1221
     26 C         142.4575  139.1475  167.6944 C.ar    1  UNL1        0.1933
     27 N         141.3021  139.2303  166.7413 N.ar    1  UNL1       -0.2884
     28 C         139.9468  139.7964  167.0457 C.3     1  UNL1        0.1340
     29 C         142.6088  141.2570  159.1307 C.3     1  UNL1        0.0521
     30 C         142.1815  140.5749  160.3965 C.ar    1  UNL1        0.0593
     31 C         143.0221  140.6939  161.6332 C.ar    1  UNL1        0.0147
     32 C         142.5947  140.0117  162.8989 C.ar    1  UNL1        0.0028
     33 C         141.3268  139.2106  162.9280 C.ar    1  UNL1        0.0206
     34 C         140.8995  138.5285  164.1936 C.ar    1  UNL1        0.0374
     35 C         139.6317  137.7273  164.2228 C.ar    1  UNL1        0.0031
     36 C         138.7912  137.6084  162.9860 C.ar    1  UNL1        0.0016
     37 C         139.2185  138.2905  161.7203 C.ar    1  UNL1        0.0191
     38 C         140.4864  139.0916  161.6913 C.ar    1  UNL1        0.0810
     39 N         140.9137  139.7738  160.4255 N.ar    1  UNL1       -0.2497
@<TRIPOS>BOND
     1    29    30    1
     2    30    31   ar
     3    31    32   ar
     4    32    33   ar
     5    33    34   ar
     6    34    23    1
     7    23    24   ar
     8    24    25   ar
     9    25    26   ar
    10    26    22    1
    11    22    21    1
    12    21     1    1
    13     1     2    1
    14     2     3    1
    15     3     4    1
    16     4     5    1
    17     5     6   ar
    18     6     7   ar
    19     7     8   ar
    20     8     9   ar
    21     9    17    1
    22    17    18    1
    23    17    19    1
    24    17    20    1
    25     9    10   ar
    26    10    11   ar
    27    11    12   ar
    28    12    13    1
    29    12    14   ar
    30    14    15    1
    31    15    16    1
    32    26    27   ar
    33    27    28    1
    34    34    35   ar
    35    35    36   ar
    36    36    37   ar
    37    37    38   ar
    38    38    39   ar
    39    39    30   ar
    40    38    33   ar
    41    27    23   ar
    42    16     2    1
    43    14     5   ar
    44    11     7   ar
@<TRIPOS>MOLECULE
*****
 39 44 0 0 0
SMALL
GASTEIGER

@<TRIPOS>ATOM
      1 C         142.9408  137.5793  159.8754 C.3     1  UNL1        0.0843
      2 N         142.6570  137.9884  161.2904 N.3     1  UNL1       -0.2713
      3 C         143.8475  138.4205  162.0942 C.3     1  UNL1        0.0768
      4 C         143.8953  138.8822  163.5206 C.3     1  UNL1        0.0434
      5 C         142.7644  139.0258  164.4954 C.ar    1  UNL1       -0.0225
      6 C         143.2477  139.5214  165.8262 C.ar    1  UNL1        0.0178
      7 C         142.2729  139.7344  166.9462 C.ar    1  UNL1        0.1190
      8 N         142.4536  140.2108  168.3570 N.ar    1  UNL1       -0.2050
      9 C         141.1072  140.2227  169.0183 C.ar    1  UNL1        0.3031
     10 O         140.0945  139.7536  168.0161 O.2     1  UNL1       -0.4312
     11 C         140.8149  139.4519  166.7356 C.ar    1  UNL1        0.1704
     12 C         140.3317  138.9563  165.4048 C.ar    1  UNL1        0.0664
     13 BR        138.8737  138.6738  165.1941 Br      1  UNL1       -0.0461
     14 C         141.3064  138.7433  164.2847 C.ar    1  UNL1       -0.0154
     15 C         140.6192  138.2473  163.0471 C.3     1  UNL1        0.0439
     16 C         141.2204  137.9113  161.7145 C.3     1  UNL1        0.0768
     17 C         140.8235  140.6318  170.4332 C.3     1  UNL1        0.4696
     18 F         140.5399  141.0409  171.8482 F       1  UNL1       -0.1619
     19 F         142.1813  140.1459  170.8460 F       1  UNL1       -0.1619
     20 F         139.4657  141.1176  170.0206 F       1  UNL1       -0.1619
     21 C         142.2997  138.3179  158.7382 C.3     1  UNL1        0.0824
     22 S         142.9806  139.5141  158.1420 S.3     1  UNL1       -0.0742
     23 C         142.2941  142.7895  160.1082 C.ar    1  UNL1        0.1669
     24 N         143.7873  142.8390  159.9748 N.ar    1  UNL1       -0.1282
     25 N         144.2263  141.6182  159.2221 N.ar    1  UNL1       -0.1221
     26 C         143.0043  140.8140  158.8902 C.ar    1  UNL1        0.1933
     27 N         141.8101  141.5379  159.4378 N.ar    1  UNL1       -0.2884
     28 C         140.3827  141.0891  159.3335 C.3     1  UNL1        0.1340
     29 C         140.1707  143.2472  166.6298 C.3     1  UNL1        0.0521
     30 C         140.4869  143.3884  165.1703 C.ar    1  UNL1        0.0593
     31 C         141.3455  142.3659  164.4866 C.ar    1  UNL1        0.0147
     32 C         141.6617  142.5072  163.0271 C.ar    1  UNL1        0.0028
     33 C         141.1193  143.6708  162.2513 C.ar    1  UNL1        0.0206
     34 C         141.4354  143.8119  160.7919 C.ar    1  UNL1        0.0374
     35 C         140.8931  144.9755  160.0161 C.ar    1  UNL1        0.0031
     36 C         140.0345  145.9979  160.6998 C.ar    1  UNL1        0.0016
     37 C         139.7183  145.8568  162.1593 C.ar    1  UNL1        0.0191
     38 C         140.2607  144.6932  162.9351 C.ar    1  UNL1        0.0810
     39 N         139.9445  144.5520  164.3946 N.ar    1  UNL1       -0.2497
@<TRIPOS>BOND
     1    29    30    1
     2    30    31   ar
     3    31    32   ar
     4    32    33   ar
     5    33    34   ar
     6    34    23    1
     7    23    24   ar
     8    24    25   ar
     9    25    26   ar
    10    26    22    1
    11    22    21    1
    12    21     1    1
    13     1     2    1
    14     2     3    1
    15     3     4    1
    16     4     5    1
    17     5     6   ar
    18     6     7   ar
    19     7     8   ar
    20     8     9   ar
    21     9    17    1
    22    17    18    1
    23    17    19    1
    24    17    20    1
    25     9    10   ar
    26    10    11   ar
    27    11    12   ar
    28    12    13    1
    29    12    14   ar
    30    14    15    1
    31    15    16    1
    32    26    27   ar
    33    27    28    1
    34    34    35   ar
    35    35    36   ar
    36    36    37   ar
    37    37    38   ar
    38    38    39   ar
    39    39    30   ar
    40    38    33   ar
    41    27    23   ar
    42    16     2    1
    43    14     5   ar
    44    11     7   ar
@<TRIPOS>MOLECULE
*****
 39 44 0 0 0
SMALL
GASTEIGER

@<TRIPOS>ATOM
      1 C         139.4416  139.8762  168.4498 C.3     1  UNL1        0.0843
      2 N         139.2235  140.1585  166.9929 N.3     1  UNL1       -0.2713
      3 C         139.3017  141.6015  166.5908 C.3     1  UNL1        0.0768
      4 C         139.1318  142.2029  165.2271 C.3     1  UNL1        0.0434
      5 C         138.8418  141.5099  163.9289 C.ar    1  UNL1       -0.0225
      6 C         138.7488  142.4872  162.7948 C.ar    1  UNL1        0.0178
      7 C         138.4641  141.9989  161.4053 C.ar    1  UNL1        0.1190
      8 N         138.3160  142.7203  160.0986 N.ar    1  UNL1       -0.2050
      9 C         138.0327  141.7006  159.0356 C.ar    1  UNL1        0.3031
     10 O         138.0057  140.3490  159.6855 O.2     1  UNL1       -0.4312
     11 C         138.2723  140.5333  161.1499 C.ar    1  UNL1        0.1704
     12 C         138.3653  139.5560  162.2841 C.ar    1  UNL1        0.0664
     13 BR        138.1735  138.0904  162.0288 Br      1  UNL1       -0.0461
     14 C         138.6500  140.0442  163.6735 C.ar    1  UNL1       -0.0154
     15 C         138.7009  138.9097  164.6534 C.3     1  UNL1        0.0439
     16 C         138.9562  138.9606  166.1307 C.3     1  UNL1        0.0768
     17 C         137.8147  141.9830  157.5787 C.3     1  UNL1        0.4696
     18 F         137.5966  142.2653  156.1218 F       1  UNL1       -0.1619
     19 F         137.0662  140.6904  157.4401 F       1  UNL1       -0.1619
     20 F         138.5631  143.2755  157.7171 F       1  UNL1       -0.1619
     21 C         140.5792  140.5284  169.1781 C.3     1  UNL1        0.0824
     22 S         141.9932  140.2566  168.7576 S.3     1  UNL1       -0.0742
     23 C         143.6015  142.1660  165.7855 C.ar    1  UNL1        0.1669
     24 N         143.9079  143.0922  166.9249 N.ar    1  UNL1       -0.1282
     25 N         143.3427  142.4897  168.1769 N.ar    1  UNL1       -0.1221
     26 C         142.6870  141.1911  167.8114 C.ar    1  UNL1        0.1933
     27 N         142.8469  140.9910  166.3334 N.ar    1  UNL1       -0.2884
     28 C         142.3411  139.8214  165.5422 C.3     1  UNL1        0.1340
     29 C         140.5314  145.7638  160.7975 C.3     1  UNL1        0.0521
     30 C         141.3942  144.9172  161.6857 C.ar    1  UNL1        0.0593
     31 C         141.0130  144.7057  163.1210 C.ar    1  UNL1        0.0147
     32 C         141.8759  143.8591  164.0092 C.ar    1  UNL1        0.0028
     33 C         143.1199  143.2241  163.4621 C.ar    1  UNL1        0.0206
     34 C         143.9827  142.3776  164.3502 C.ar    1  UNL1        0.0374
     35 C         145.2267  141.7425  163.8033 C.ar    1  UNL1        0.0031
     36 C         145.6078  141.9541  162.3680 C.ar    1  UNL1        0.0016
     37 C         144.7450  142.8007  161.4798 C.ar    1  UNL1        0.0191
     38 C         143.5010  143.4357  162.0269 C.ar    1  UNL1        0.0810
     39 N         142.6382  144.2822  161.1386 N.ar    1  UNL1       -0.2497
@<TRIPOS>BOND
     1    29    30    1
     2    30    31   ar
     3    31    32   ar
     4    32    33   ar
     5    33    34   ar
     6    34    23    1
     7    23    24   ar
     8    24    25   ar
     9    25    26   ar
    10    26    22    1
    11    22    21    1
    12    21     1    1
    13     1     2    1
    14     2     3    1
    15     3     4    1
    16     4     5    1
    17     5     6   ar
    18     6     7   ar
    19     7     8   ar
    20     8     9   ar
    21     9    17    1
    22    17    18    1
    23    17    19    1
    24    17    20    1
    25     9    10   ar
    26    10    11   ar
    27    11    12   ar
    28    12    13    1
    29    12    14   ar
    30    14    15    1
    31    15    16    1
    32    26    27   ar
    33    27    28    1
    34    34    35   ar
    35    35    36   ar
    36    36    37   ar
    37    37    38   ar
    38    38    39   ar
    39    39    30   ar
    40    38    33   ar
    41    27    23   ar
    42    16     2    1
    43    14     5   ar
    44    11     7   ar
@<TRIPOS>MOLECULE
*****
 39 44 0 0 0
SMALL
GASTEIGER

@<TRIPOS>ATOM
      1 C         143.3622  143.6297  158.3567 C.3     1  UNL1        0.0843
      2 N         142.9575  143.4933  159.7947 N.3     1  UNL1       -0.2713
      3 C         143.9239  142.7587  160.6759 C.3     1  UNL1        0.0768
      4 C         143.8114  142.4590  162.1414 C.3     1  UNL1        0.0434
      5 C         142.7048  142.8197  163.0874 C.ar    1  UNL1       -0.0225
      6 C         142.9881  142.3268  164.4756 C.ar    1  UNL1        0.0178
      7 C         142.0039  142.5835  165.5780 C.ar    1  UNL1        0.1190
      8 N         142.0107  142.2222  167.0338 N.ar    1  UNL1       -0.2050
      9 C         140.7474  142.7485  167.6480 C.ar    1  UNL1        0.3031
     10 O         139.9599  143.4350  166.5718 O.2     1  UNL1       -0.4312
     11 C         140.7364  143.3331  165.2925 C.ar    1  UNL1        0.1704
     12 C         140.4531  143.8260  163.9044 C.ar    1  UNL1        0.0664
     13 BR        139.1857  144.5756  163.6188 Br      1  UNL1       -0.0461
     14 C         141.4373  143.5693  162.8019 C.ar    1  UNL1       -0.0154
     15 C         140.9634  144.1434  161.4996 C.3     1  UNL1        0.0439
     16 C         141.6400  144.1095  160.1613 C.3     1  UNL1        0.0768
     17 C         140.3428  142.6120  169.0859 C.3     1  UNL1        0.4696
     18 F         139.9383  142.4756  170.5238 F       1  UNL1       -0.1619
     19 F         140.4378  141.1194  168.9711 F       1  UNL1       -0.1619
     20 F         140.2479  144.1045  169.2009 F       1  UNL1       -0.1619
     21 C         142.5407  142.9821  157.2817 C.3     1  UNL1        0.0824
     22 S         142.7092  141.5211  156.9866 S.3     1  UNL1       -0.0742
     23 C         141.9867  139.2285  160.0341 C.ar    1  UNL1        0.1669
     24 N         143.3463  138.7457  159.6240 N.ar    1  UNL1       -0.1282
     25 N         143.7825  139.5456  158.4325 N.ar    1  UNL1       -0.1221
     26 C         142.6924  140.5230  158.1061 C.ar    1  UNL1        0.1933
     27 N         141.5825  140.3270  159.0960 N.ar    1  UNL1       -0.2884
     28 C         140.2946  141.0946  159.1400 C.3     1  UNL1        0.1340
     29 C         143.6061  138.3186  166.6522 C.3     1  UNL1        0.0521
     30 C         142.9980  138.4152  165.2844 C.ar    1  UNL1        0.0593
     31 C         143.8109  138.9388  164.1375 C.ar    1  UNL1        0.0147
     32 C         143.2027  139.0354  162.7697 C.ar    1  UNL1        0.0028
     33 C         141.7819  138.6083  162.5487 C.ar    1  UNL1        0.0206
     34 C         141.1739  138.7048  161.1809 C.ar    1  UNL1        0.0374
     35 C         139.7530  138.2778  160.9598 C.ar    1  UNL1        0.0031
     36 C         138.9403  137.7542  162.1067 C.ar    1  UNL1        0.0016
     37 C         139.5483  137.6576  163.4745 C.ar    1  UNL1        0.0191
     38 C         140.9692  138.0847  163.6955 C.ar    1  UNL1        0.0810
     39 N         141.5772  137.9881  165.0634 N.ar    1  UNL1       -0.2497
@<TRIPOS>BOND
     1    29    30    1
     2    30    31   ar
     3    31    32   ar
     4    32    33   ar
     5    33    34   ar
     6    34    23    1
     7    23    24   ar
     8    24    25   ar
     9    25    26   ar
    10    26    22    1
    11    22    21    1
    12    21     1    1
    13     1     2    1
    14     2     3    1
    15     3     4    1
    16     4     5    1
    17     5     6   ar
    18     6     7   ar
    19     7     8   ar
    20     8     9   ar
    21     9    17    1
    22    17    18    1
    23    17    19    1
    24    17    20    1
    25     9    10   ar
    26    10    11   ar
    27    11    12   ar
    28    12    13    1
    29    12    14   ar
    30    14    15    1
    31    15    16    1
    32    26    27   ar
    33    27    28    1
    34    34    35   ar
    35    35    36   ar
    36    36    37   ar
    37    37    38   ar
    38    38    39   ar
    39    39    30   ar
    40    38    33   ar
    41    27    23   ar
    42    16     2    1
    43    14     5   ar
    44    11     7   ar
@<TRIPOS>MOLECULE
*****
 39 44 0 0 0
SMALL
GASTEIGER

@<TRIPOS>ATOM
      1 C         141.2352  145.5154  159.2628 C.3     1  UNL1        0.0843
      2 N         141.1952  144.9511  160.6520 N.3     1  UNL1       -0.2713
      3 C         142.2996  143.9969  160.9988 C.3     1  UNL1        0.0768
      4 C         142.5377  143.2715  162.2901 C.3     1  UNL1        0.0434
      5 C         141.7304  143.3212  163.5532 C.ar    1  UNL1       -0.0225
      6 C         142.3182  142.4388  164.6143 C.ar    1  UNL1        0.0178
      7 C         141.6613  142.3437  165.9595 C.ar    1  UNL1        0.1190
      8 N         142.0080  141.5637  167.1929 N.ar    1  UNL1       -0.2050
      9 C         140.9775  141.8689  168.2393 C.ar    1  UNL1        0.3031
     10 O         139.9939  142.8375  167.6525 O.2     1  UNL1       -0.4312
     11 C         140.4165  143.1309  166.2436 C.ar    1  UNL1        0.1704
     12 C         139.8286  144.0133  165.1824 C.ar    1  UNL1        0.0664
     13 BR        138.5838  144.8005  165.4665 Br      1  UNL1       -0.0461
     14 C         140.4855  144.1084  163.8373 C.ar    1  UNL1       -0.0154
     15 C         139.7406  145.0404  162.9283 C.3     1  UNL1        0.0439
     16 C         140.0565  145.4154  161.5107 C.3     1  UNL1        0.0768
     17 C         140.9376  141.3045  169.6285 C.3     1  UNL1        0.4696
     18 F         140.8978  140.7402  171.0177 F       1  UNL1       -0.1619
     19 F         139.4509  141.5002  169.6654 F       1  UNL1       -0.1619
     20 F         142.4243  141.1089  169.5917 F       1  UNL1       -0.1619
     21 C         140.1617  145.1594  158.2775 C.3     1  UNL1        0.0824
     22 S         139.8498  143.7194  157.9958 S.3     1  UNL1       -0.0742
     23 C         139.6297  141.0148  160.7711 C.ar    1  UNL1        0.1669
     24 N         138.3158  141.7169  160.9458 N.ar    1  UNL1       -0.1282
     25 N         138.2382  142.8155  159.9274 N.ar    1  UNL1       -0.1221
     26 C         139.5043  142.7924  159.1233 C.ar    1  UNL1        0.1933
     27 N         140.3643  141.6795  159.6447 N.ar    1  UNL1       -0.2884
     28 C         141.7207  141.2982  159.1302 C.3     1  UNL1        0.1340
     29 C         138.4561  139.2678  167.3148 C.3     1  UNL1        0.0521
     30 C         138.8727  139.4139  165.8813 C.ar    1  UNL1        0.0593
     31 C         138.3798  140.5766  165.0717 C.ar    1  UNL1        0.0147
     32 C         138.7965  140.7226  163.6381 C.ar    1  UNL1        0.0028
     33 C         139.7060  139.7060  163.0141 C.ar    1  UNL1        0.0206
     34 C         140.1226  139.8521  161.5806 C.ar    1  UNL1        0.0374
     35 C         141.0321  138.8356  160.9565 C.ar    1  UNL1        0.0031
     36 C         141.5249  137.6729  161.7661 C.ar    1  UNL1        0.0016
     37 C         141.1083  137.5268  163.1996 C.ar    1  UNL1        0.0191
     38 C         140.1988  138.5434  163.8237 C.ar    1  UNL1        0.0810
     39 N         139.7822  138.3973  165.2572 N.ar    1  UNL1       -0.2497
@<TRIPOS>BOND
     1    29    30    1
     2    30    31   ar
     3    31    32   ar
     4    32    33   ar
     5    33    34   ar
     6    34    23    1
     7    23    24   ar
     8    24    25   ar
     9    25    26   ar
    10    26    22    1
    11    22    21    1
    12    21     1    1
    13     1     2    1
    14     2     3    1
    15     3     4    1
    16     4     5    1
    17     5     6   ar
    18     6     7   ar
    19     7     8   ar
    20     8     9   ar
    21     9    17    1
    22    17    18    1
    23    17    19    1
    24    17    20    1
    25     9    10   ar
    26    10    11   ar
    27    11    12   ar
    28    12    13    1
    29    12    14   ar
    30    14    15    1
    31    15    16    1
    32    26    27   ar
    33    27    28    1
    34    34    35   ar
    35    35    36   ar
    36    36    37   ar
    37    37    38   ar
    38    38    39   ar
    39    39    30   ar
    40    38    33   ar
    41    27    23   ar
    42    16     2    1
    43    14     5   ar
    44    11     7   ar
@<TRIPOS>MOLECULE
*****
 39 44 0 0 0
SMALL
GASTEIGER

@<TRIPOS>ATOM
      1 C         144.3394  141.8251  158.8704 C.3     1  UNL1        0.0843
      2 N         144.0850  141.6563  160.3390 N.3     1  UNL1       -0.2713
      3 C         143.4542  140.3574  160.7450 C.3     1  UNL1        0.0768
      4 C         143.0776  139.8901  162.1198 C.3     1  UNL1        0.0434
      5 C         143.2388  140.6062  163.4278 C.ar    1  UNL1       -0.0225
      6 C         142.7297  139.7798  164.5715 C.ar    1  UNL1        0.0178
      7 C         142.7982  140.3137  165.9715 C.ar    1  UNL1        0.1190
      8 N         142.3777  139.7328  167.2890 N.ar    1  UNL1       -0.2050
      9 C         142.6955  140.7341  168.3597 C.ar    1  UNL1        0.3031
     10 O         143.3124  141.9338  167.7040 O.2     1  UNL1       -0.4312
     11 C         143.3758  141.6740  166.2281 C.ar    1  UNL1        0.1704
     12 C         143.8850  142.5005  165.0844 C.ar    1  UNL1        0.0664
     13 BR        144.4626  143.8607  165.3409 Br      1  UNL1       -0.0461
     14 C         143.8165  141.9665  163.6844 C.ar    1  UNL1       -0.0154
     15 C         144.3756  142.9467  162.6961 C.3     1  UNL1        0.0439
     16 C         144.4950  142.8086  161.2072 C.3     1  UNL1        0.0768
     17 C         142.4411  140.5651  169.8283 C.3     1  UNL1        0.4696
     18 F         142.1866  140.3962  171.2968 F       1  UNL1       -0.1619
     19 F         141.2106  139.7634  169.5229 F       1  UNL1       -0.1619
     20 F         143.6715  141.3668  170.1337 F       1  UNL1       -0.1619
     21 C         143.8803  143.0682  158.1677 C.3     1  UNL1        0.0824
     22 S         142.4341  143.2342  157.8052 S.3     1  UNL1       -0.0742
     23 C         139.8448  142.2053  160.5075 C.ar    1  UNL1        0.1669
     24 N         139.6204  141.1437  159.4719 N.ar    1  UNL1       -0.1282
     25 N         140.5630  141.3999  158.3335 N.ar    1  UNL1       -0.1221
     26 C         141.3701  142.6199  158.6656 C.ar    1  UNL1        0.1933
     27 N         140.9262  143.1177  160.0092 N.ar    1  UNL1       -0.2884
     28 C         141.4685  144.3172  160.7283 C.3     1  UNL1        0.1340
     29 C         138.6542  137.5942  165.4643 C.3     1  UNL1        0.0521
     30 C         138.7696  138.7788  164.5513 C.ar    1  UNL1        0.0593
     31 C         139.4985  138.6517  163.2464 C.ar    1  UNL1        0.0147
     32 C         139.6139  139.8363  162.3334 C.ar    1  UNL1        0.0028
     33 C         139.0005  141.1479  162.7253 C.ar    1  UNL1        0.0206
     34 C         139.1159  142.3324  161.8123 C.ar    1  UNL1        0.0374
     35 C         138.5025  143.6439  162.2041 C.ar    1  UNL1        0.0031
     36 C         137.7736  143.7709  163.5089 C.ar    1  UNL1        0.0016
     37 C         137.6582  142.5864  164.4220 C.ar    1  UNL1        0.0191
     38 C         138.2716  141.2748  164.0301 C.ar    1  UNL1        0.0810
     39 N         138.1562  140.0903  164.9431 N.ar    1  UNL1       -0.2497
@<TRIPOS>BOND
     1    29    30    1
     2    30    31   ar
     3    31    32   ar
     4    32    33   ar
     5    33    34   ar
     6    34    23    1
     7    23    24   ar
     8    24    25   ar
     9    25    26   ar
    10    26    22    1
    11    22    21    1
    12    21     1    1
    13     1     2    1
    14     2     3    1
    15     3     4    1
    16     4     5    1
    17     5     6   ar
    18     6     7   ar
    19     7     8   ar
    20     8     9   ar
    21     9    17    1
    22    17    18    1
    23    17    19    1
    24    17    20    1
    25     9    10   ar
    26    10    11   ar
    27    11    12   ar
    28    12    13    1
    29    12    14   ar
    30    14    15    1
    31    15    16    1
    32    26    27   ar
    33    27    28    1
    34    34    35   ar
    35    35    36   ar
    36    36    37   ar
    37    37    38   ar
    38    38    39   ar
    39    39    30   ar
    40    38    33   ar
    41    27    23   ar
    42    16     2    1
    43    14     5   ar
    44    11     7   ar
