@<TRIPOS>MOLECULE
*****
 38 42 0 0 0
SMALL
GASTEIGER

@<TRIPOS>ATOM
      1 N         142.1408  140.6634  165.8192 N.ar    1  UNL1       -0.2986
      2 C         140.9573  140.4213  166.7084 C.ar    1  UNL1        0.1245
      3 C         140.0048  139.5219  165.9777 C.ar    1  UNL1        0.1157
      4 C         140.5997  139.2082  164.6369 C.ar    1  UNL1        0.0967
      5 C         141.9197  139.9137  164.5389 C.ar    1  UNL1        0.1354
      6 C         142.7500  139.7823  163.2965 C.ar    1  UNL1        0.2819
      7 O         144.0701  140.4877  163.1986 O.2     1  UNL1       -0.2652
      8 N         142.2601  138.9454  162.1522 N.ar    1  UNL1       -0.2400
      9 C         140.9400  138.2399  162.2501 C.ar    1  UNL1        0.3343
     10 O         140.4501  137.4030  161.1058 O.2     1  UNL1       -0.2462
     11 N         140.1097  138.3713  163.4925 N.ar    1  UNL1       -0.2770
     12 C         138.7896  137.6659  163.5905 C.3     1  UNL1        0.1351
     13 N         140.7608  140.9803  168.0864 N.pl3   1  UNL1       -0.2925
     14 C         140.5259  142.4599  168.1610 C.3     1  UNL1        0.0936
     15 C         140.2974  143.3106  169.3752 C.3     1  UNL1        0.0385
     16 C         140.2472  142.8916  170.8146 C.3     1  UNL1        0.0704
     17 N         140.4132  141.5186  171.3954 N.3     1  UNL1       -0.2960
     18 C         140.6704  140.2254  170.6802 C.3     1  UNL1        0.0903
     19 C         140.8251  139.9859  169.2075 C.3     1  UNL1        0.1092
     20 H         139.5515  141.3556  171.9162 H       1  UNL1        0.1233
     21 C         138.6886  139.0237  166.4966 C.1     1  UNL1        0.1047
     22 N         137.3723  138.5255  167.0156 N.1     1  UNL1       -0.1907
     23 C         143.3356  141.5071  166.1518 C.3     1  UNL1        0.1842
     24 C         143.9909  145.4180  164.0243 C.3     1  UNL1        0.0900
     25 C         143.7725  144.1144  164.7334 C.1     1  UNL1       -0.0881
     26 C         143.5540  142.8107  165.4426 C.1     1  UNL1       -0.0656
     27 C         143.0903  138.8140  160.9098 C.3     1  UNL1        0.1791
     28 C         143.1078  139.9219  159.8987 C.ar    1  UNL1        0.1617
     29 N         144.0822  139.8820  158.7591 N.ar    1  UNL1       -0.2330
     30 C         144.0997  140.9898  157.7480 C.ar    1  UNL1        0.0622
     31 C         145.0742  140.9498  156.6084 C.3     1  UNL1        0.0522
     32 C         143.1426  142.1377  157.8765 C.ar    1  UNL1        0.0313
     33 C         143.1600  143.2455  156.8654 C.ar    1  UNL1        0.0027
     34 C         142.2030  144.3933  156.9940 C.ar    1  UNL1        0.0001
     35 C         141.2285  144.4333  158.1336 C.ar    1  UNL1        0.0015
     36 C         141.2111  143.3254  159.1447 C.ar    1  UNL1        0.0192
     37 C         142.1681  142.1776  159.0162 C.ar    1  UNL1        0.0838
     38 N         142.1507  141.0697  160.0273 N.ar    1  UNL1       -0.2287
@<TRIPOS>BOND
     1    24    25    1
     2    25    26    3
     3    26    23    1
     4    23     1    1
     5     1     2   ar
     6     2    13    1
     7    13    14    1
     8    14    15    1
     9    15    16    1
    10    16    17    1
    11    17    18    1
    12    18    19    1
    13     2     3   ar
    14     3    21    1
    15    21    22    3
    16     3     4   ar
    17     4     5   ar
    18     5     6   ar
    19     6     7    2
    20     6     8   ar
    21     8    27    1
    22    27    28    1
    23    28    29   ar
    24    29    30   ar
    25    30    31    1
    26    30    32   ar
    27    32    33   ar
    28    33    34   ar
    29    34    35   ar
    30    35    36   ar
    31    36    37   ar
    32    37    38   ar
    33     8     9   ar
    34     9    10    2
    35     9    11   ar
    36    11    12    1
    37     5     1   ar
    38    38    28   ar
    39    19    13    1
    40    11     4   ar
    41    37    32   ar
    42    17    20    1
@<TRIPOS>MOLECULE
*****
 38 42 0 0 0
SMALL
GASTEIGER

@<TRIPOS>ATOM
      1 N         142.1079  141.5234  165.1495 N.ar    1  UNL1       -0.2986
      2 C         140.9884  142.1998  165.8837 C.ar    1  UNL1        0.1245
      3 C         140.4885  143.3272  165.0298 C.ar    1  UNL1        0.1157
      4 C         141.2991  143.3475  163.7679 C.ar    1  UNL1        0.0967
      5 C         142.3000  142.2327  163.8418 C.ar    1  UNL1        0.1354
      6 C         143.2569  142.0075  162.7089 C.ar    1  UNL1        0.2819
      7 O         144.2577  140.8927  162.7828 O.2     1  UNL1       -0.2652
      8 N         143.2130  142.8971  161.5020 N.ar    1  UNL1       -0.2400
      9 C         142.2121  144.0120  161.4280 C.ar    1  UNL1        0.3343
     10 O         142.1682  144.9016  160.2211 O.2     1  UNL1       -0.2462
     11 N         141.2552  144.2372  162.5610 N.ar    1  UNL1       -0.2770
     12 C         140.2543  145.3520  162.4870 C.3     1  UNL1        0.1351
     13 N         140.4613  141.8162  167.2347 N.pl3   1  UNL1       -0.2925
     14 C         139.6307  140.5679  167.2787 C.3     1  UNL1        0.0936
     15 C         138.9682  139.9266  168.4618 C.3     1  UNL1        0.0385
     16 C         138.9725  140.3754  169.8932 C.3     1  UNL1        0.0704
     17 N         139.6404  141.5762  170.4948 N.3     1  UNL1       -0.2960
     18 C         140.4690  142.6248  169.8137 C.3     1  UNL1        0.0903
     19 C         140.8343  142.7316  168.3628 C.3     1  UNL1        0.1092
     20 H         140.2536  141.1936  171.2146 H       1  UNL1        0.1233
     21 C         139.3738  144.2689  165.3769 C.1     1  UNL1        0.1047
     22 N         138.2590  145.2106  165.7241 N.1     1  UNL1       -0.1907
     23 C         142.8969  140.3446  165.6372 C.3     1  UNL1        0.1842
     24 C         142.5486  139.0225  169.9245 C.3     1  UNL1        0.0900
     25 C         142.6647  139.4632  168.4955 C.1     1  UNL1       -0.0881
     26 C         142.7808  139.9039  167.0663 C.1     1  UNL1       -0.0656
     27 C         144.1699  142.6719  160.3690 C.3     1  UNL1        0.1791
     28 C         143.8836  141.6143  159.3445 C.ar    1  UNL1        0.1617
     29 N         142.7291  140.6763  159.5373 N.ar    1  UNL1       -0.2330
     30 C         142.4428  139.6188  158.5128 C.ar    1  UNL1        0.0622
     31 C         141.2882  138.6808  158.7056 C.3     1  UNL1        0.0522
     32 C         143.3110  139.4992  157.2954 C.ar    1  UNL1        0.0313
     33 C         143.0247  138.4417  156.2709 C.ar    1  UNL1        0.0027
     34 C         143.8930  138.3222  155.0537 C.ar    1  UNL1        0.0001
     35 C         145.0475  139.2602  154.8609 C.ar    1  UNL1        0.0015
     36 C         145.3338  140.3177  155.8853 C.ar    1  UNL1        0.0192
     37 C         144.4656  140.4372  157.1026 C.ar    1  UNL1        0.0838
     38 N         144.7519  141.4948  158.1272 N.ar    1  UNL1       -0.2287
@<TRIPOS>BOND
     1    24    25    1
     2    25    26    3
     3    26    23    1
     4    23     1    1
     5     1     2   ar
     6     2    13    1
     7    13    14    1
     8    14    15    1
     9    15    16    1
    10    16    17    1
    11    17    18    1
    12    18    19    1
    13     2     3   ar
    14     3    21    1
    15    21    22    3
    16     3     4   ar
    17     4     5   ar
    18     5     6   ar
    19     6     7    2
    20     6     8   ar
    21     8    27    1
    22    27    28    1
    23    28    29   ar
    24    29    30   ar
    25    30    31    1
    26    30    32   ar
    27    32    33   ar
    28    33    34   ar
    29    34    35   ar
    30    35    36   ar
    31    36    37   ar
    32    37    38   ar
    33     8     9   ar
    34     9    10    2
    35     9    11   ar
    36    11    12    1
    37     5     1   ar
    38    38    28   ar
    39    19    13    1
    40    11     4   ar
    41    37    32   ar
    42    17    20    1
@<TRIPOS>MOLECULE
*****
 38 42 0 0 0
SMALL
GASTEIGER

@<TRIPOS>ATOM
      1 N         141.1390  144.7113  160.5706 N.ar    1  UNL1       -0.2986
      2 C         141.2593  144.2907  159.1358 C.ar    1  UNL1        0.1245
      3 C         142.4772  143.4246  159.0072 C.ar    1  UNL1        0.1157
      4 C         143.1096  143.3099  160.3625 C.ar    1  UNL1        0.0967
      5 C         142.2826  144.1052  161.3287 C.ar    1  UNL1        0.1354
      6 C         142.6777  144.1746  162.7741 C.ar    1  UNL1        0.2819
      7 O         141.8507  144.9698  163.7403 O.2     1  UNL1       -0.2652
      8 N         143.8998  143.4488  163.2532 N.ar    1  UNL1       -0.2400
      9 C         144.7269  142.6535  162.2870 C.ar    1  UNL1        0.3343
     10 O         145.9490  141.9277  162.7661 O.2     1  UNL1       -0.2462
     11 N         144.3318  142.5841  160.8416 N.ar    1  UNL1       -0.2770
     12 C         145.1588  141.7888  159.8754 C.3     1  UNL1        0.1351
     13 N         140.3255  144.6696  158.0247 N.pl3   1  UNL1       -0.2925
     14 C         139.4291  143.5752  157.5261 C.3     1  UNL1        0.0936
     15 C         138.3975  143.6336  156.4388 C.3     1  UNL1        0.0385
     16 C         138.0074  144.8011  155.5815 C.3     1  UNL1        0.0704
     17 N         138.5527  146.1983  155.5997 N.3     1  UNL1       -0.2960
     18 C         139.6227  146.7732  156.4798 C.3     1  UNL1        0.0903
     19 C         140.4117  146.0929  157.5591 C.3     1  UNL1        0.1092
     20 H         137.7381  146.7883  155.7692 H       1  UNL1        0.1233
     21 C         142.9752  142.7853  157.7449 C.1     1  UNL1        0.1047
     22 N         143.4732  142.1460  156.4826 N.1     1  UNL1       -0.1907
     23 C         140.0640  145.5847  161.1462 C.3     1  UNL1        0.1842
     24 C         137.5094  144.0749  164.5293 C.3     1  UNL1        0.0900
     25 C         138.3609  144.5782  163.4016 C.1     1  UNL1       -0.0881
     26 C         139.2125  145.0815  162.2739 C.1     1  UNL1       -0.0656
     27 C         144.2950  143.5182  164.6986 C.3     1  UNL1        0.1791
     28 C         143.7791  142.4955  165.6671 C.ar    1  UNL1        0.1617
     29 N         143.4452  141.1129  165.1908 N.ar    1  UNL1       -0.2330
     30 C         142.9293  140.0902  166.1592 C.ar    1  UNL1        0.0622
     31 C         142.5955  138.7075  165.6829 C.3     1  UNL1        0.0522
     32 C         142.7473  140.4501  167.6040 C.ar    1  UNL1        0.0313
     33 C         142.2314  139.4274  168.5725 C.ar    1  UNL1        0.0027
     34 C         142.0493  139.7873  170.0172 C.ar    1  UNL1        0.0001
     35 C         142.3832  141.1700  170.4935 C.ar    1  UNL1        0.0015
     36 C         142.8990  142.1927  169.5250 C.ar    1  UNL1        0.0192
     37 C         143.0811  141.8327  168.0803 C.ar    1  UNL1        0.0838
     38 N         143.5970  142.8555  167.1118 N.ar    1  UNL1       -0.2287
@<TRIPOS>BOND
     1    24    25    1
     2    25    26    3
     3    26    23    1
     4    23     1    1
     5     1     2   ar
     6     2    13    1
     7    13    14    1
     8    14    15    1
     9    15    16    1
    10    16    17    1
    11    17    18    1
    12    18    19    1
    13     2     3   ar
    14     3    21    1
    15    21    22    3
    16     3     4   ar
    17     4     5   ar
    18     5     6   ar
    19     6     7    2
    20     6     8   ar
    21     8    27    1
    22    27    28    1
    23    28    29   ar
    24    29    30   ar
    25    30    31    1
    26    30    32   ar
    27    32    33   ar
    28    33    34   ar
    29    34    35   ar
    30    35    36   ar
    31    36    37   ar
    32    37    38   ar
    33     8     9   ar
    34     9    10    2
    35     9    11   ar
    36    11    12    1
    37     5     1   ar
    38    38    28   ar
    39    19    13    1
    40    11     4   ar
    41    37    32   ar
    42    17    20    1
@<TRIPOS>MOLECULE
*****
 38 42 0 0 0
SMALL
GASTEIGER

@<TRIPOS>ATOM
      1 N         141.0379  144.7757  160.3706 N.ar    1  UNL1       -0.2986
      2 C         141.1317  144.3793  158.9270 C.ar    1  UNL1        0.1245
      3 C         142.3380  143.5026  158.7645 C.ar    1  UNL1        0.1157
      4 C         142.9896  143.3574  160.1077 C.ar    1  UNL1        0.0967
      5 C         142.1862  144.1442  161.1003 C.ar    1  UNL1        0.1354
      6 C         142.6039  144.1839  162.5404 C.ar    1  UNL1        0.2819
      7 O         141.8004  144.9706  163.5330 O.2     1  UNL1       -0.2652
      8 N         143.8252  143.4368  162.9879 N.ar    1  UNL1       -0.2400
      9 C         144.6288  142.6499  161.9953 C.ar    1  UNL1        0.3343
     10 O         145.8501  141.9028  162.4428 O.2     1  UNL1       -0.2462
     11 N         144.2110  142.6102  160.5552 N.ar    1  UNL1       -0.2770
     12 C         145.0145  141.8234  159.5626 C.3     1  UNL1        0.1351
     13 N         140.1853  144.7877  157.8371 N.pl3   1  UNL1       -0.2925
     14 C         139.3346  143.6907  157.2690 C.3     1  UNL1        0.0936
     15 C         138.3033  143.7740  156.1830 C.3     1  UNL1        0.0385
     16 C         137.8680  144.9752  155.3969 C.3     1  UNL1        0.0704
     17 N         138.3565  146.3894  155.5026 N.3     1  UNL1       -0.2960
     18 C         139.4010  146.9519  156.4206 C.3     1  UNL1        0.0903
     19 C         140.2149  146.2391  157.4596 C.3     1  UNL1        0.1092
     20 H         137.5185  146.9348  155.7044 H       1  UNL1        0.1233
     21 C         142.8098  142.8806  157.4837 C.1     1  UNL1        0.1047
     22 N         143.2816  142.2585  156.2029 N.1     1  UNL1       -0.1907
     23 C         139.9813  145.6502  160.9779 C.3     1  UNL1        0.1842
     24 C         137.5547  144.1583  164.4616 C.3     1  UNL1        0.0900
     25 C         138.3635  144.6556  163.3004 C.1     1  UNL1       -0.0881
     26 C         139.1724  145.1529  162.1391 C.1     1  UNL1       -0.0656
     27 C         144.2430  143.4765  164.4280 C.3     1  UNL1        0.1791
     28 C         143.4065  142.7957  165.4706 C.ar    1  UNL1        0.1617
     29 N         143.7936  142.8830  166.9172 N.ar    1  UNL1       -0.2330
     30 C         142.9572  142.2023  167.9598 C.ar    1  UNL1        0.0622
     31 C         143.3443  142.2897  169.4063 C.3     1  UNL1        0.0522
     32 C         141.7338  141.4341  167.5558 C.ar    1  UNL1        0.0313
     33 C         140.8974  140.7534  168.5984 C.ar    1  UNL1        0.0027
     34 C         139.6740  139.9853  168.1944 C.ar    1  UNL1        0.0001
     35 C         139.2870  139.8979  166.7478 C.ar    1  UNL1        0.0015
     36 C         140.1233  140.5786  165.7053 C.ar    1  UNL1        0.0192
     37 C         141.3467  141.3467  166.1092 C.ar    1  UNL1        0.0838
     38 N         142.1832  142.0275  165.0666 N.ar    1  UNL1       -0.2287
@<TRIPOS>BOND
     1    24    25    1
     2    25    26    3
     3    26    23    1
     4    23     1    1
     5     1     2   ar
     6     2    13    1
     7    13    14    1
     8    14    15    1
     9    15    16    1
    10    16    17    1
    11    17    18    1
    12    18    19    1
    13     2     3   ar
    14     3    21    1
    15    21    22    3
    16     3     4   ar
    17     4     5   ar
    18     5     6   ar
    19     6     7    2
    20     6     8   ar
    21     8    27    1
    22    27    28    1
    23    28    29   ar
    24    29    30   ar
    25    30    31    1
    26    30    32   ar
    27    32    33   ar
    28    33    34   ar
    29    34    35   ar
    30    35    36   ar
    31    36    37   ar
    32    37    38   ar
    33     8     9   ar
    34     9    10    2
    35     9    11   ar
    36    11    12    1
    37     5     1   ar
    38    38    28   ar
    39    19    13    1
    40    11     4   ar
    41    37    32   ar
    42    17    20    1
@<TRIPOS>MOLECULE
*****
 38 42 0 0 0
SMALL
GASTEIGER

@<TRIPOS>ATOM
      1 N         139.0659  141.9979  161.4056 N.ar    1  UNL1       -0.2986
      2 C         139.8144  141.9714  160.1060 C.ar    1  UNL1        0.1245
      3 C         140.7183  140.7744  160.1160 C.ar    1  UNL1        0.1157
      4 C         140.5285  140.0611  161.4218 C.ar    1  UNL1        0.0967
      5 C         139.5072  140.8173  162.2189 C.ar    1  UNL1        0.1354
      6 C         139.1111  140.3331  163.5822 C.ar    1  UNL1        0.2819
      7 O         138.0899  141.0892  164.3792 O.2     1  UNL1       -0.2652
      8 N         139.7362  139.0927  164.1485 N.ar    1  UNL1       -0.2400
      9 C         140.7575  138.3365  163.3514 C.ar    1  UNL1        0.3343
     10 O         141.3826  137.0962  163.9177 O.2     1  UNL1       -0.2462
     11 N         141.1536  138.8207  161.9881 N.ar    1  UNL1       -0.2770
     12 C         142.1748  138.0646  161.1911 C.3     1  UNL1        0.1351
     13 N         139.6822  142.9671  158.9919 N.pl3   1  UNL1       -0.2925
     14 C         140.4203  144.2589  159.1826 C.3     1  UNL1        0.0936
     15 C         140.4879  145.4420  158.2630 C.3     1  UNL1        0.0385
     16 C         139.8340  145.6254  156.9255 C.3     1  UNL1        0.0704
     17 N         138.9512  144.6711  156.1773 N.3     1  UNL1       -0.2960
     18 C         138.5041  143.2977  156.5818 C.3     1  UNL1        0.0903
     19 C         138.8294  142.5392  157.8345 C.3     1  UNL1        0.1092
     20 H         139.4233  144.5333  155.2837 H       1  UNL1        0.1233
     21 C         141.6487  140.3629  159.0137 C.1     1  UNL1        0.1047
     22 N         142.5792  139.9514  157.9114 N.1     1  UNL1       -0.1907
     23 C         138.0538  143.0247  161.8194 C.3     1  UNL1        0.1842
     24 C         138.4673  145.1236  165.7785 C.3     1  UNL1        0.0900
     25 C         138.3295  144.4240  164.4588 C.1     1  UNL1       -0.0881
     26 C         138.1916  143.7243  163.1391 C.1     1  UNL1       -0.0656
     27 C         139.3401  138.6085  165.5118 C.3     1  UNL1        0.1791
     28 C         139.7568  139.3768  166.7309 C.ar    1  UNL1        0.1617
     29 N         138.8481  139.4432  167.9225 N.ar    1  UNL1       -0.2330
     30 C         139.2648  140.2114  169.1416 C.ar    1  UNL1        0.0622
     31 C         138.3561  140.2778  170.3331 C.3     1  UNL1        0.0522
     32 C         140.5902  140.9132  169.1691 C.ar    1  UNL1        0.0313
     33 C         141.0069  141.6815  170.3882 C.ar    1  UNL1        0.0027
     34 C         142.3323  142.3833  170.4157 C.ar    1  UNL1        0.0001
     35 C         143.2410  142.3168  169.2242 C.ar    1  UNL1        0.0015
     36 C         142.8243  141.5486  168.0051 C.ar    1  UNL1        0.0192
     37 C         141.4989  140.8468  167.9776 C.ar    1  UNL1        0.0838
     38 N         141.0822  140.0786  166.7584 N.ar    1  UNL1       -0.2287
@<TRIPOS>BOND
     1    24    25    1
     2    25    26    3
     3    26    23    1
     4    23     1    1
     5     1     2   ar
     6     2    13    1
     7    13    14    1
     8    14    15    1
     9    15    16    1
    10    16    17    1
    11    17    18    1
    12    18    19    1
    13     2     3   ar
    14     3    21    1
    15    21    22    3
    16     3     4   ar
    17     4     5   ar
    18     5     6   ar
    19     6     7    2
    20     6     8   ar
    21     8    27    1
    22    27    28    1
    23    28    29   ar
    24    29    30   ar
    25    30    31    1
    26    30    32   ar
    27    32    33   ar
    28    33    34   ar
    29    34    35   ar
    30    35    36   ar
    31    36    37   ar
    32    37    38   ar
    33     8     9   ar
    34     9    10    2
    35     9    11   ar
    36    11    12    1
    37     5     1   ar
    38    38    28   ar
    39    19    13    1
    40    11     4   ar
    41    37    32   ar
    42    17    20    1
@<TRIPOS>MOLECULE
*****
 38 42 0 0 0
SMALL
GASTEIGER

@<TRIPOS>ATOM
      1 N         142.1640  140.6581  165.8360 N.ar    1  UNL1       -0.2986
      2 C         140.9705  140.4192  166.7126 C.ar    1  UNL1        0.1245
      3 C         140.0248  139.5199  165.9730 C.ar    1  UNL1        0.1157
      4 C         140.6339  139.2030  164.6394 C.ar    1  UNL1        0.0967
      5 C         141.9560  139.9064  164.5547 C.ar    1  UNL1        0.1354
      6 C         142.7997  139.7716  163.3218 C.ar    1  UNL1        0.2819
      7 O         144.1218  140.4750  163.2371 O.2     1  UNL1       -0.2652
      8 N         142.3212  138.9333  162.1736 N.ar    1  UNL1       -0.2400
      9 C         140.9991  138.2299  162.2583 C.ar    1  UNL1        0.3343
     10 O         140.5206  137.3917  161.1101 O.2     1  UNL1       -0.2462
     11 N         140.1554  138.3647  163.4912 N.ar    1  UNL1       -0.2770
     12 C         138.8333  137.6613  163.5759 C.3     1  UNL1        0.1351
     13 N         140.7596  140.9810  168.0873 N.pl3   1  UNL1       -0.2925
     14 C         140.5295  142.4616  168.1571 C.3     1  UNL1        0.0936
     15 C         140.2897  143.3149  169.3672 C.3     1  UNL1        0.0385
     16 C         140.2207  142.8982  170.8065 C.3     1  UNL1        0.0704
     17 N         140.3745  141.5255  171.3912 N.3     1  UNL1       -0.2960
     18 C         140.6353  140.2303  170.6809 C.3     1  UNL1        0.0903
     19 C         140.8066  139.9880  169.2105 C.3     1  UNL1        0.1092
     20 H         139.5060  141.3664  171.9019 H       1  UNL1        0.1233
     21 C         138.7022  139.0245  166.4783 C.1     1  UNL1        0.1047
     22 N         137.3795  138.5292  166.9837 N.1     1  UNL1       -0.1907
     23 C         143.3563  141.5007  166.1803 C.3     1  UNL1        0.1842
     24 C         144.0069  145.4364  164.0978 C.3     1  UNL1        0.0900
     25 C         143.7900  144.1245  164.7919 C.1     1  UNL1       -0.0881
     26 C         143.5731  142.8126  165.4861 C.1     1  UNL1       -0.0656
     27 C         143.1649  138.7985  160.9407 C.3     1  UNL1        0.1791
     28 C         143.1071  139.8511  159.8736 C.ar    1  UNL1        0.1617
     29 N         142.1193  140.9748  159.9812 N.ar    1  UNL1       -0.2330
     30 C         142.0614  142.0273  158.9141 C.ar    1  UNL1        0.0622
     31 C         141.0736  143.1510  159.0218 C.3     1  UNL1        0.0522
     32 C         142.9914  141.9562  157.7393 C.ar    1  UNL1        0.0313
     33 C         142.9336  143.0088  156.6722 C.ar    1  UNL1        0.0027
     34 C         143.8635  142.9377  155.4975 C.ar    1  UNL1        0.0001
     35 C         144.8513  141.8140  155.3898 C.ar    1  UNL1        0.0015
     36 C         144.9092  140.7615  156.4569 C.ar    1  UNL1        0.0192
     37 C         143.9792  140.8326  157.6316 C.ar    1  UNL1        0.0838
     38 N         144.0370  139.7800  158.6988 N.ar    1  UNL1       -0.2287
@<TRIPOS>BOND
     1    24    25    1
     2    25    26    3
     3    26    23    1
     4    23     1    1
     5     1     2   ar
     6     2    13    1
     7    13    14    1
     8    14    15    1
     9    15    16    1
    10    16    17    1
    11    17    18    1
    12    18    19    1
    13     2     3   ar
    14     3    21    1
    15    21    22    3
    16     3     4   ar
    17     4     5   ar
    18     5     6   ar
    19     6     7    2
    20     6     8   ar
    21     8    27    1
    22    27    28    1
    23    28    29   ar
    24    29    30   ar
    25    30    31    1
    26    30    32   ar
    27    32    33   ar
    28    33    34   ar
    29    34    35   ar
    30    35    36   ar
    31    36    37   ar
    32    37    38   ar
    33     8     9   ar
    34     9    10    2
    35     9    11   ar
    36    11    12    1
    37     5     1   ar
    38    38    28   ar
    39    19    13    1
    40    11     4   ar
    41    37    32   ar
    42    17    20    1
@<TRIPOS>MOLECULE
*****
 38 42 0 0 0
SMALL
GASTEIGER

@<TRIPOS>ATOM
      1 N         140.3623  140.3188  164.7898 N.ar    1  UNL1       -0.2986
      2 C         141.7735  140.2376  165.2916 C.ar    1  UNL1        0.1245
      3 C         142.6534  139.8502  164.1401 C.ar    1  UNL1        0.1157
      4 C         141.7858  139.6920  162.9268 C.ar    1  UNL1        0.0967
      5 C         140.3699  139.9816  163.3282 C.ar    1  UNL1        0.1354
      6 C         139.2705  139.9008  162.3110 C.ar    1  UNL1        0.2819
      7 O         137.8545  140.1905  162.7125 O.2     1  UNL1       -0.2652
      8 N         139.5869  139.5305  160.8924 N.ar    1  UNL1       -0.2400
      9 C         141.0029  139.2408  160.4909 C.ar    1  UNL1        0.3343
     10 O         141.3194  138.8704  159.0722 O.2     1  UNL1       -0.2462
     11 N         142.1024  139.3216  161.5080 N.ar    1  UNL1       -0.2770
     12 C         143.5183  139.0320  161.1066 C.3     1  UNL1        0.1351
     13 N         142.2256  140.4981  166.6980 N.pl3   1  UNL1       -0.2925
     14 C         142.6963  141.8937  166.9823 C.3     1  UNL1        0.0936
     15 C         143.2049  142.4645  168.2729 C.3     1  UNL1        0.0385
     16 C         143.3683  141.7805  169.5979 C.3     1  UNL1        0.0704
     17 N         143.0636  140.3571  169.9595 N.3     1  UNL1       -0.2960
     18 C         142.5202  139.2659  169.0855 C.3     1  UNL1        0.0903
     19 C         142.1472  139.3286  167.6339 C.3     1  UNL1        0.1092
     20 H         142.3958  140.4259  170.7274 H       1  UNL1        0.1233
     21 C         144.1397  139.6552  164.1929 C.1     1  UNL1        0.1047
     22 N         145.6261  139.4602  164.2455 N.1     1  UNL1       -0.1907
     23 C         139.1553  140.6748  165.6062 C.3     1  UNL1        0.1842
     24 C         136.8379  137.4485  167.7207 C.3     1  UNL1        0.0900
     25 C         137.6104  138.5239  167.0158 C.1     1  UNL1       -0.0881
     26 C         138.3829  139.5994  166.3110 C.1     1  UNL1       -0.0656
     27 C         138.4875  139.4497  159.8752 C.3     1  UNL1        0.1791
     28 C         138.3173  140.5464  158.8660 C.ar    1  UNL1        0.1617
     29 N         139.1554  141.7870  158.9582 N.ar    1  UNL1       -0.2330
     30 C         138.9853  142.8837  157.9491 C.ar    1  UNL1        0.0622
     31 C         139.8234  144.1243  158.0412 C.3     1  UNL1        0.0522
     32 C         137.9771  142.7398  156.8478 C.ar    1  UNL1        0.0313
     33 C         137.8070  143.8365  155.8387 C.ar    1  UNL1        0.0027
     34 C         136.7988  143.6926  154.7374 C.ar    1  UNL1        0.0001
     35 C         135.9607  142.4519  154.6453 C.ar    1  UNL1        0.0015
     36 C         136.1308  141.3553  155.6544 C.ar    1  UNL1        0.0192
     37 C         137.1390  141.4992  156.7556 C.ar    1  UNL1        0.0838
     38 N         137.3091  140.4025  157.7648 N.ar    1  UNL1       -0.2287
@<TRIPOS>BOND
     1    24    25    1
     2    25    26    3
     3    26    23    1
     4    23     1    1
     5     1     2   ar
     6     2    13    1
     7    13    14    1
     8    14    15    1
     9    15    16    1
    10    16    17    1
    11    17    18    1
    12    18    19    1
    13     2     3   ar
    14     3    21    1
    15    21    22    3
    16     3     4   ar
    17     4     5   ar
    18     5     6   ar
    19     6     7    2
    20     6     8   ar
    21     8    27    1
    22    27    28    1
    23    28    29   ar
    24    29    30   ar
    25    30    31    1
    26    30    32   ar
    27    32    33   ar
    28    33    34   ar
    29    34    35   ar
    30    35    36   ar
    31    36    37   ar
    32    37    38   ar
    33     8     9   ar
    34     9    10    2
    35     9    11   ar
    36    11    12    1
    37     5     1   ar
    38    38    28   ar
    39    19    13    1
    40    11     4   ar
    41    37    32   ar
    42    17    20    1
@<TRIPOS>MOLECULE
*****
 38 42 0 0 0
SMALL
GASTEIGER

@<TRIPOS>ATOM
      1 N         143.6350  142.6753  159.8775 N.ar    1  UNL1       -0.2986
      2 C         143.7128  142.9185  158.3995 C.ar    1  UNL1        0.1245
      3 C         142.6596  143.9240  158.0391 C.ar    1  UNL1        0.1157
      4 C         141.9310  144.3021  159.2945 C.ar    1  UNL1        0.0967
      5 C         142.5338  143.5304  160.4307 C.ar    1  UNL1        0.1354
      6 C         142.0020  143.7061  161.8222 C.ar    1  UNL1        0.2819
      7 O         142.6048  142.9344  162.9585 O.2     1  UNL1       -0.2652
      8 N         140.8675  144.6535  162.0775 N.ar    1  UNL1       -0.2400
      9 C         140.2646  145.4252  160.9413 C.ar    1  UNL1        0.3343
     10 O         139.1301  146.3726  161.1966 O.2     1  UNL1       -0.2462
     11 N         140.7964  145.2496  159.5497 N.ar    1  UNL1       -0.2770
     12 C         140.1936  146.0213  158.4135 C.3     1  UNL1        0.1351
     13 N         144.6749  142.2700  157.4486 N.pl3   1  UNL1       -0.2925
     14 C         144.1115  141.1646  156.6057 C.3     1  UNL1        0.0936
     15 C         144.8070  140.3288  155.5725 C.3     1  UNL1        0.0385
     16 C         146.2380  140.3922  155.1269 C.3     1  UNL1        0.0704
     17 N         147.3266  141.3069  155.6045 N.3     1  UNL1       -0.2960
     18 C         147.2532  142.3842  156.6457 C.3     1  UNL1        0.0903
     19 C         146.0731  142.8129  157.4664 C.3     1  UNL1        0.1092
     20 H         147.6450  141.7866  154.7625 H       1  UNL1        0.1233
     21 C         142.3836  144.4575  156.6646 C.1     1  UNL1        0.1047
     22 N         142.1076  144.9912  155.2902 N.1     1  UNL1       -0.1907
     23 C         144.5056  141.7409  160.6644 C.3     1  UNL1        0.1842
     24 C         142.8044  137.8975  162.2720 C.3     1  UNL1        0.0900
     25 C         143.3714  139.1786  161.7361 C.1     1  UNL1       -0.0881
     26 C         143.9385  140.4598  161.2002 C.1     1  UNL1       -0.0656
     27 C         140.3357  144.8291  163.4691 C.3     1  UNL1        0.1791
     28 C         140.0085  143.6268  164.3043 C.ar    1  UNL1        0.1617
     29 N         139.2047  142.5036  163.7194 N.ar    1  UNL1       -0.2330
     30 C         138.8775  141.3013  164.5545 C.ar    1  UNL1        0.0622
     31 C         138.0737  140.1781  163.9696 C.3     1  UNL1        0.0522
     32 C         139.3542  141.2223  165.9746 C.ar    1  UNL1        0.0313
     33 C         139.0270  140.0200  166.8098 C.ar    1  UNL1        0.0027
     34 C         139.5036  139.9411  168.2298 C.ar    1  UNL1        0.0001
     35 C         140.3075  141.0643  168.8147 C.ar    1  UNL1        0.0015
     36 C         140.6346  142.2666  167.9796 C.ar    1  UNL1        0.0192
     37 C         140.1580  142.3456  166.5595 C.ar    1  UNL1        0.0838
     38 N         140.4852  143.5479  165.7243 N.ar    1  UNL1       -0.2287
@<TRIPOS>BOND
     1    24    25    1
     2    25    26    3
     3    26    23    1
     4    23     1    1
     5     1     2   ar
     6     2    13    1
     7    13    14    1
     8    14    15    1
     9    15    16    1
    10    16    17    1
    11    17    18    1
    12    18    19    1
    13     2     3   ar
    14     3    21    1
    15    21    22    3
    16     3     4   ar
    17     4     5   ar
    18     5     6   ar
    19     6     7    2
    20     6     8   ar
    21     8    27    1
    22    27    28    1
    23    28    29   ar
    24    29    30   ar
    25    30    31    1
    26    30    32   ar
    27    32    33   ar
    28    33    34   ar
    29    34    35   ar
    30    35    36   ar
    31    36    37   ar
    32    37    38   ar
    33     8     9   ar
    34     9    10    2
    35     9    11   ar
    36    11    12    1
    37     5     1   ar
    38    38    28   ar
    39    19    13    1
    40    11     4   ar
    41    37    32   ar
    42    17    20    1
@<TRIPOS>MOLECULE
*****
 38 42 0 0 0
SMALL
GASTEIGER

@<TRIPOS>ATOM
      1 N         140.8438  139.0235  162.7407 N.ar    1  UNL1       -0.2986
      2 C         141.8467  139.8082  163.5334 C.ar    1  UNL1        0.1245
      3 C         142.4744  140.8170  162.6178 C.ar    1  UNL1        0.1157
      4 C         141.8594  140.6557  161.2592 C.ar    1  UNL1        0.0967
      5 C         140.8517  139.5473  161.3352 C.ar    1  UNL1        0.1354
      6 C         140.0714  139.1581  160.1146 C.ar    1  UNL1        0.2819
      7 O         139.0637  138.0496  160.1906 O.2     1  UNL1       -0.2652
      8 N         140.2988  139.8773  158.8182 N.ar    1  UNL1       -0.2400
      9 C         141.3066  140.9858  158.7422 C.ar    1  UNL1        0.3343
     10 O         141.5341  141.7051  157.4457 O.2     1  UNL1       -0.2462
     11 N         142.0869  141.3750  159.9627 N.ar    1  UNL1       -0.2770
     12 C         143.0946  142.4834  159.8867 C.3     1  UNL1        0.1351
     13 N         142.1659  139.6177  164.9867 N.pl3   1  UNL1       -0.2925
     14 C         141.4489  140.5315  165.9357 C.3     1  UNL1        0.0936
     15 C         141.5487  140.5919  167.4312 C.3     1  UNL1        0.0385
     16 C         142.3903  139.7533  168.3469 C.3     1  UNL1        0.0704
     17 N         143.3399  138.6473  167.9934 N.3     1  UNL1       -0.2960
     18 C         143.6824  138.1067  166.6368 C.3     1  UNL1        0.0903
     19 C         143.1599  138.5385  165.2986 C.3     1  UNL1        0.1092
     20 H         142.9947  137.8390  168.5109 H       1  UNL1        0.1233
     21 C         143.5314  141.8123  162.9946 C.1     1  UNL1        0.1047
     22 N         144.5885  142.8077  163.3713 N.1     1  UNL1       -0.1907
     23 C         139.9840  137.9104  163.2620 C.3     1  UNL1        0.1842
     24 C         137.6313  138.4728  167.0566 C.3     1  UNL1        0.0900
     25 C         138.4156  138.2853  165.7917 C.1     1  UNL1       -0.0881
     26 C         139.1998  138.0979  164.5268 C.1     1  UNL1       -0.0656
     27 C         139.5186  139.4881  157.5976 C.3     1  UNL1        0.1791
     28 C         140.0220  138.3945  156.7028 C.ar    1  UNL1        0.1617
     29 N         139.3383  138.1203  155.3961 N.ar    1  UNL1       -0.2330
     30 C         139.8417  137.0268  154.5012 C.ar    1  UNL1        0.0622
     31 C         139.1580  136.7526  153.1946 C.3     1  UNL1        0.0522
     32 C         141.0288  136.2075  154.9130 C.ar    1  UNL1        0.0313
     33 C         141.5322  135.1139  154.0182 C.ar    1  UNL1        0.0027
     34 C         142.7192  134.2947  154.4300 C.ar    1  UNL1        0.0001
     35 C         143.4029  134.5689  155.7366 C.ar    1  UNL1        0.0015
     36 C         142.8996  135.6624  156.6315 C.ar    1  UNL1        0.0192
     37 C         141.7125  136.4817  156.2197 C.ar    1  UNL1        0.0838
     38 N         141.2091  137.5753  157.1146 N.ar    1  UNL1       -0.2287
@<TRIPOS>BOND
     1    24    25    1
     2    25    26    3
     3    26    23    1
     4    23     1    1
     5     1     2   ar
     6     2    13    1
     7    13    14    1
     8    14    15    1
     9    15    16    1
    10    16    17    1
    11    17    18    1
    12    18    19    1
    13     2     3   ar
    14     3    21    1
    15    21    22    3
    16     3     4   ar
    17     4     5   ar
    18     5     6   ar
    19     6     7    2
    20     6     8   ar
    21     8    27    1
    22    27    28    1
    23    28    29   ar
    24    29    30   ar
    25    30    31    1
    26    30    32   ar
    27    32    33   ar
    28    33    34   ar
    29    34    35   ar
    30    35    36   ar
    31    36    37   ar
    32    37    38   ar
    33     8     9   ar
    34     9    10    2
    35     9    11   ar
    36    11    12    1
    37     5     1   ar
    38    38    28   ar
    39    19    13    1
    40    11     4   ar
    41    37    32   ar
    42    17    20    1
