@<TRIPOS>MOLECULE
*****
 36 39 0 0 0
SMALL
GASTEIGER

@<TRIPOS>ATOM
      1 C         141.7558  141.1009  167.1572 C.ar    1  UNL1        0.0005
      2 C         140.9901  140.0448  166.4168 C.ar    1  UNL1       -0.0003
      3 C         141.4008  139.6556  165.0276 C.ar    1  UNL1       -0.0034
      4 C         142.5774  140.3226  164.3788 C.ar    1  UNL1       -0.0103
      5 C         143.3431  141.3788  165.1192 C.ar    1  UNL1        0.0537
      6 CL        144.5196  142.0458  164.4705 Cl      1  UNL1       -0.0826
      7 C         142.9323  141.7679  166.5084 C.ar    1  UNL1        0.0111
      8 C         142.9882  139.9335  162.9897 C.3     1  UNL1        0.0430
      9 C         144.0687  138.9134  162.7852 C.3     1  UNL1        0.0733
     10 N         144.4795  138.5242  161.3960 N.3     1  UNL1       -0.2972
     11 C         143.8098  139.1551  160.2113 C.3     1  UNL1        0.0689
     12 C         142.7292  140.1752  160.4159 C.3     1  UNL1        0.0218
     13 C         142.3184  140.5644  161.8050 C.3     1  UNL1        0.0293
     14 H         144.3321  137.5180  161.3163 H       1  UNL1        0.1233
     15 C         141.2379  141.5845  162.0095 C.ar    1  UNL1       -0.0159
     16 C         141.5960  143.0291  162.1964 C.ar    1  UNL1        0.0146
     17 C         140.5154  144.0492  162.4009 C.ar    1  UNL1        0.0781
     18 N         139.0768  143.6247  162.4185 N.ar    1  UNL1       -0.2922
     19 C         137.9962  144.6448  162.6230 C.3     1  UNL1        0.1336
     20 C         138.7188  142.1801  162.2317 C.ar    1  UNL1        0.2607
     21 O         137.2802  141.7556  162.2494 O.2     1  UNL1       -0.2670
     22 C         139.7993  141.1600  162.0272 C.ar    1  UNL1        0.0565
     23 C         141.6366  140.5752  169.6987 C.ar    1  UNL1       -0.0205
     24 C         141.2258  140.9644  171.0879 C.ar    1  UNL1       -0.0042
     25 C         140.5233  142.2684  171.3247 C.ar    1  UNL1       -0.0003
     26 C         140.2317  143.1833  170.1723 C.ar    1  UNL1       -0.0000
     27 C         140.6425  142.7941  168.7832 C.ar    1  UNL1       -0.0003
     28 C         141.3450  141.4901  168.5464 C.ar    1  UNL1       -0.0039
     29 C         142.3391  139.2712  169.4620 C.3     1  UNL1        0.0476
     30 C         143.2550  138.7116  170.5098 C.3     1  UNL1        0.0941
     31 C         144.5923  136.6492  171.3513 C.2     1  UNL1        0.2225
     32 O         145.6761  137.5567  171.8531 O.2     1  UNL1       -0.2751
     33 N         143.3817  137.2267  170.6796 N.am    1  UNL1       -0.3040
     34 H         142.6704  136.6310  170.3502 H       1  UNL1        0.1494
     35 C         145.5499  134.6053  172.6379 C.3     1  UNL1        0.0101
     36 C         144.7191  135.1643  171.5211 C.3     1  UNL1        0.0851
@<TRIPOS>BOND
     1    35    36    1
     2    36    31    1
     3    31    32    2
     4    31    33   am
     5    33    30    1
     6    30    29    1
     7    29    23    1
     8    23    24   ar
     9    24    25   ar
    10    25    26   ar
    11    26    27   ar
    12    27    28   ar
    13    28     1    1
    14     1     2   ar
    15     2     3   ar
    16     3     4   ar
    17     8     4    1
    18     8     9    1
    19     9    10    1
    20    10    11    1
    21    11    12    1
    22    12    13    1
    23    13    15    1
    24    15    16   ar
    25    16    17   ar
    26    17    18   ar
    27    18    19    1
    28    18    20   ar
    29    20    21    2
    30    20    22   ar
    31     4     5   ar
    32     5     6    1
    33     5     7   ar
    34    28    23   ar
    35     7     1   ar
    36    13     8    1
    37    22    15   ar
    38    33    34    1
    39    10    14    1
@<TRIPOS>MOLECULE
*****
 36 39 0 0 0
SMALL
GASTEIGER

@<TRIPOS>ATOM
      1 C         140.3965  142.6382  165.9943 C.ar    1  UNL1        0.0005
      2 C         141.7032  142.4264  165.2888 C.ar    1  UNL1       -0.0003
      3 C         141.8605  142.8497  163.8585 C.ar    1  UNL1       -0.0034
      4 C         140.7111  143.4848  163.1334 C.ar    1  UNL1       -0.0103
      5 C         139.4044  143.6965  163.8388 C.ar    1  UNL1        0.0537
      6 CL        138.2550  144.3315  163.1139 Cl      1  UNL1       -0.0826
      7 C         139.2471  143.2732  165.2693 C.ar    1  UNL1        0.0111
      8 C         140.8684  143.9080  161.7030 C.3     1  UNL1        0.0430
      9 C         141.4949  145.2313  161.3771 C.3     1  UNL1        0.0733
     10 N         141.6523  145.6547  159.9466 N.3     1  UNL1       -0.2972
     11 C         141.1831  144.7546  158.8422 C.3     1  UNL1        0.0689
     12 C         140.5566  143.4312  159.1682 C.3     1  UNL1        0.0218
     13 C         140.3993  143.0080  160.5986 C.3     1  UNL1        0.0293
     14 H         142.6483  145.8131  159.7943 H       1  UNL1        0.1233
     15 C         139.7728  141.6846  160.9245 C.ar    1  UNL1       -0.0159
     16 C         138.2831  141.5230  160.8566 C.ar    1  UNL1        0.0146
     17 C         137.6566  140.1996  161.1825 C.ar    1  UNL1        0.0781
     18 N         138.5199  139.0379  161.5764 N.ar    1  UNL1       -0.2922
     19 C         137.8934  137.7145  161.9024 C.3     1  UNL1        0.1336
     20 C         140.0096  139.1995  161.6444 C.ar    1  UNL1        0.2607
     21 O         140.8728  138.0377  162.0383 O.2     1  UNL1       -0.2670
     22 C         140.6361  140.5228  161.3184 C.ar    1  UNL1        0.0565
     23 C         139.8029  140.8170  167.7496 C.ar    1  UNL1       -0.0205
     24 C         139.6457  140.3938  169.1800 C.ar    1  UNL1       -0.0042
     25 C         139.9246  141.3684  170.2855 C.ar    1  UNL1       -0.0003
     26 C         140.3609  142.7663  169.9607 C.ar    1  UNL1       -0.0000
     27 C         140.5182  143.1895  168.5303 C.ar    1  UNL1       -0.0003
     28 C         140.2392  142.2149  167.4247 C.ar    1  UNL1       -0.0039
     29 C         139.5239  139.8424  166.6440 C.3     1  UNL1        0.0476
     30 C         140.5791  138.8624  166.2241 C.3     1  UNL1        0.0941
     31 C         142.8891  138.8381  165.0352 C.2     1  UNL1        0.2225
     32 O         143.5180  138.2617  166.2689 O.2     1  UNL1       -0.2751
     33 N         141.4196  139.1385  165.0127 N.am    1  UNL1       -0.3040
     34 H         141.0068  139.5168  164.2030 H       1  UNL1        0.1494
     35 C         144.9146  140.0281  163.9256 C.3     1  UNL1        0.0101
     36 C         143.7296  139.1141  163.8239 C.3     1  UNL1        0.0851
@<TRIPOS>BOND
     1    35    36    1
     2    36    31    1
     3    31    32    2
     4    31    33   am
     5    33    30    1
     6    30    29    1
     7    29    23    1
     8    23    24   ar
     9    24    25   ar
    10    25    26   ar
    11    26    27   ar
    12    27    28   ar
    13    28     1    1
    14     1     2   ar
    15     2     3   ar
    16     3     4   ar
    17     8     4    1
    18     8     9    1
    19     9    10    1
    20    10    11    1
    21    11    12    1
    22    12    13    1
    23    13    15    1
    24    15    16   ar
    25    16    17   ar
    26    17    18   ar
    27    18    19    1
    28    18    20   ar
    29    20    21    2
    30    20    22   ar
    31     4     5   ar
    32     5     6    1
    33     5     7   ar
    34    28    23   ar
    35     7     1   ar
    36    13     8    1
    37    22    15   ar
    38    33    34    1
    39    10    14    1
@<TRIPOS>MOLECULE
*****
 36 39 0 0 0
SMALL
GASTEIGER

@<TRIPOS>ATOM
      1 C         141.9159  142.1761  166.4283 C.ar    1  UNL1        0.0005
      2 C         142.9089  142.1674  165.3040 C.ar    1  UNL1       -0.0003
      3 C         142.5487  142.7745  163.9805 C.ar    1  UNL1       -0.0034
      4 C         141.1955  143.3903  163.7813 C.ar    1  UNL1       -0.0103
      5 C         140.2025  143.3990  164.9055 C.ar    1  UNL1        0.0537
      6 CL        138.8494  144.0147  164.7063 Cl      1  UNL1       -0.0826
      7 C         140.5628  142.7918  166.2290 C.ar    1  UNL1        0.0111
      8 C         140.8353  143.9974  162.4578 C.3     1  UNL1        0.0430
      9 C         141.2479  145.4043  162.1409 C.3     1  UNL1        0.0733
     10 N         140.8878  146.0115  160.8173 N.3     1  UNL1       -0.2972
     11 C         140.1150  145.2117  159.8108 C.3     1  UNL1        0.0689
     12 C         139.7024  143.8048  160.1277 C.3     1  UNL1        0.0218
     13 C         140.0626  143.1977  161.4512 C.3     1  UNL1        0.0293
     14 H         141.7634  146.2816  160.3693 H       1  UNL1        0.1233
     15 C         139.6500  141.7908  161.7681 C.ar    1  UNL1       -0.0159
     16 C         138.2540  141.5063  162.2376 C.ar    1  UNL1        0.0146
     17 C         137.8415  140.0994  162.5545 C.ar    1  UNL1        0.0781
     18 N         138.8248  138.9770  162.4019 N.ar    1  UNL1       -0.2922
     19 C         138.4122  137.5701  162.7188 C.3     1  UNL1        0.1336
     20 C         140.2207  139.2615  161.9323 C.ar    1  UNL1        0.2607
     21 O         141.2040  138.1390  161.7797 O.2     1  UNL1       -0.2670
     22 C         140.6333  140.6684  161.6154 C.ar    1  UNL1        0.0565
     23 C         142.2569  140.0789  167.9236 C.ar    1  UNL1       -0.0205
     24 C         142.6172  139.4719  169.2470 C.ar    1  UNL1       -0.0042
     25 C         142.9967  140.3548  170.3988 C.ar    1  UNL1       -0.0003
     26 C         143.0159  141.8447  170.2270 C.ar    1  UNL1       -0.0000
     27 C         142.6557  142.4518  168.9035 C.ar    1  UNL1       -0.0003
     28 C         142.2762  141.5689  167.7518 C.ar    1  UNL1       -0.0039
     29 C         141.8774  139.1960  166.7718 C.3     1  UNL1        0.0476
     30 C         142.9442  138.5348  165.9505 C.3     1  UNL1        0.0941
     31 C         144.1276  139.1963  163.7341 C.2     1  UNL1        0.2225
     32 O         145.3465  139.6050  164.5069 O.2     1  UNL1       -0.2751
     33 N         142.9264  138.6612  164.4559 N.am    1  UNL1       -0.3040
     34 H         142.1264  138.3929  163.9487 H       1  UNL1        0.1494
     35 C         144.3991  140.6460  161.5953 C.3     1  UNL1        0.0101
     36 C         144.1098  139.3227  162.2396 C.3     1  UNL1        0.0851
@<TRIPOS>BOND
     1    35    36    1
     2    36    31    1
     3    31    32    2
     4    31    33   am
     5    33    30    1
     6    30    29    1
     7    29    23    1
     8    23    24   ar
     9    24    25   ar
    10    25    26   ar
    11    26    27   ar
    12    27    28   ar
    13    28     1    1
    14     1     2   ar
    15     2     3   ar
    16     3     4   ar
    17     8     4    1
    18     8     9    1
    19     9    10    1
    20    10    11    1
    21    11    12    1
    22    12    13    1
    23    13    15    1
    24    15    16   ar
    25    16    17   ar
    26    17    18   ar
    27    18    19    1
    28    18    20   ar
    29    20    21    2
    30    20    22   ar
    31     4     5   ar
    32     5     6    1
    33     5     7   ar
    34    28    23   ar
    35     7     1   ar
    36    13     8    1
    37    22    15   ar
    38    33    34    1
    39    10    14    1
@<TRIPOS>MOLECULE
*****
 36 39 0 0 0
SMALL
GASTEIGER

@<TRIPOS>ATOM
      1 C         141.9091  142.3602  166.2345 C.ar    1  UNL1        0.0005
      2 C         140.4843  142.3870  165.7662 C.ar    1  UNL1       -0.0003
      3 C         140.1350  143.0457  164.4646 C.ar    1  UNL1       -0.0034
      4 C         141.2104  143.6776  163.6314 C.ar    1  UNL1       -0.0103
      5 C         142.6352  143.6507  164.0997 C.ar    1  UNL1        0.0537
      6 CL        143.7106  144.2826  163.2665 Cl      1  UNL1       -0.0826
      7 C         142.9845  142.9920  165.4013 C.ar    1  UNL1        0.0111
      8 C         140.8611  144.3363  162.3298 C.3     1  UNL1        0.0430
      9 C         140.2038  145.6846  162.3243 C.3     1  UNL1        0.0733
     10 N         139.8544  146.3434  161.0228 N.3     1  UNL1       -0.2972
     11 C         140.1623  145.6538  159.7267 C.3     1  UNL1        0.0689
     12 C         140.8196  144.3054  159.7323 C.3     1  UNL1        0.0218
     13 C         141.1690  143.6467  161.0338 C.3     1  UNL1        0.0293
     14 H         140.3448  147.2375  161.0043 H       1  UNL1        0.1233
     15 C         141.8262  142.2984  161.0393 C.ar    1  UNL1       -0.0159
     16 C         143.1965  142.1297  160.4530 C.ar    1  UNL1        0.0146
     17 C         143.8538  140.7813  160.4585 C.ar    1  UNL1        0.0781
     18 N         143.1408  139.6018  161.0504 N.ar    1  UNL1       -0.2922
     19 C         143.7981  138.2534  161.0559 C.3     1  UNL1        0.1336
     20 C         141.7705  139.7706  161.6367 C.ar    1  UNL1        0.2607
     21 O         141.0574  138.5910  162.2285 O.2     1  UNL1       -0.2670
     22 C         141.1132  141.1188  161.6312 C.ar    1  UNL1        0.0565
     23 C         141.7250  140.3356  167.8524 C.ar    1  UNL1       -0.0205
     24 C         142.0743  139.6770  169.1539 C.ar    1  UNL1       -0.0042
     25 C         142.9571  140.3841  170.1392 C.ar    1  UNL1       -0.0003
     26 C         143.4905  141.7498  169.8229 C.ar    1  UNL1       -0.0000
     27 C         143.1412  142.4085  168.5214 C.ar    1  UNL1       -0.0003
     28 C         142.2584  141.7014  167.5361 C.ar    1  UNL1       -0.0039
     29 C         140.8422  139.6285  166.8671 C.3     1  UNL1        0.0476
     30 C         141.4438  138.7081  165.8469 C.3     1  UNL1        0.0941
     31 C         143.9995  138.8137  165.3914 C.2     1  UNL1        0.2225
     32 O         144.2525  137.9917  166.6203 O.2     1  UNL1       -0.2751
     33 N         142.5951  139.1719  165.0046 N.am    1  UNL1       -0.3040
     34 H         142.4290  139.7114  164.1980 H       1  UNL1        0.1494
     35 C         145.1042  140.6249  163.8917 C.3     1  UNL1        0.0101
     36 C         145.1508  139.2775  164.5491 C.3     1  UNL1        0.0851
@<TRIPOS>BOND
     1    35    36    1
     2    36    31    1
     3    31    32    2
     4    31    33   am
     5    33    30    1
     6    30    29    1
     7    29    23    1
     8    23    24   ar
     9    24    25   ar
    10    25    26   ar
    11    26    27   ar
    12    27    28   ar
    13    28     1    1
    14     1     2   ar
    15     2     3   ar
    16     3     4   ar
    17     8     4    1
    18     8     9    1
    19     9    10    1
    20    10    11    1
    21    11    12    1
    22    12    13    1
    23    13    15    1
    24    15    16   ar
    25    16    17   ar
    26    17    18   ar
    27    18    19    1
    28    18    20   ar
    29    20    21    2
    30    20    22   ar
    31     4     5   ar
    32     5     6    1
    33     5     7   ar
    34    28    23   ar
    35     7     1   ar
    36    13     8    1
    37    22    15   ar
    38    33    34    1
    39    10    14    1
@<TRIPOS>MOLECULE
*****
 36 39 0 0 0
SMALL
GASTEIGER

@<TRIPOS>ATOM
      1 C         141.2386  141.8328  166.2386 C.ar    1  UNL1        0.0005
      2 C         140.0160  141.5647  165.4119 C.ar    1  UNL1       -0.0003
      3 C         139.8019  142.3078  164.1266 C.ar    1  UNL1       -0.0034
      4 C         140.8105  143.3189  163.6679 C.ar    1  UNL1       -0.0103
      5 C         142.0332  143.5870  164.4946 C.ar    1  UNL1        0.0537
      6 CL        143.0417  144.5981  164.0359 Cl      1  UNL1       -0.0826
      7 C         142.2472  142.8439  165.7799 C.ar    1  UNL1        0.0111
      8 C         140.5965  144.0620  162.3826 C.3     1  UNL1        0.0430
      9 C         139.8920  145.3862  162.3903 C.3     1  UNL1        0.0733
     10 N         139.6779  146.1293  161.1049 N.3     1  UNL1       -0.2972
     11 C         140.1683  145.5481  159.8120 C.3     1  UNL1        0.0689
     12 C         140.8729  144.2238  159.8044 C.3     1  UNL1        0.0218
     13 C         141.0869  143.4808  161.0897 C.3     1  UNL1        0.0293
     14 H         140.1312  147.0369  161.2105 H       1  UNL1        0.1233
     15 C         141.7915  142.1566  161.0820 C.ar    1  UNL1       -0.0159
     16 C         143.2468  142.0793  161.4369 C.ar    1  UNL1        0.0146
     17 C         143.9513  140.7550  161.4292 C.ar    1  UNL1        0.0781
     18 N         143.2005  139.5081  161.0667 N.ar    1  UNL1       -0.2922
     19 C         143.9050  138.1838  161.0591 C.3     1  UNL1        0.1336
     20 C         141.7451  139.5854  160.7119 C.ar    1  UNL1        0.2607
     21 O         140.9943  138.3384  160.3494 O.2     1  UNL1       -0.2670
     22 C         141.0406  140.9096  160.7195 C.ar    1  UNL1        0.0565
     23 C         142.3110  139.8598  167.5452 C.ar    1  UNL1       -0.0205
     24 C         142.5249  139.1168  168.8306 C.ar    1  UNL1       -0.0042
     25 C         141.8806  139.6037  170.0946 C.ar    1  UNL1       -0.0003
     26 C         141.0223  140.8336  170.0733 C.ar    1  UNL1       -0.0000
     27 C         140.8083  141.5767  168.7880 C.ar    1  UNL1       -0.0003
     28 C         141.4527  141.0897  167.5239 C.ar    1  UNL1       -0.0039
     29 C         142.9553  139.3729  166.2812 C.3     1  UNL1        0.0476
     30 C         142.3107  138.2775  165.4846 C.3     1  UNL1        0.0941
     31 C         140.3335  137.6365  163.9258 C.2     1  UNL1        0.2225
     32 O         141.2648  136.8191  163.0806 O.2     1  UNL1       -0.2751
     33 N         140.8564  138.3658  165.1278 N.am    1  UNL1       -0.3040
     34 H         140.2451  138.9023  165.6825 H       1  UNL1        0.1494
     35 C         138.3776  138.8729  162.7444 C.3     1  UNL1        0.0101
     36 C         138.8792  137.7247  163.5690 C.3     1  UNL1        0.0851
@<TRIPOS>BOND
     1    35    36    1
     2    36    31    1
     3    31    32    2
     4    31    33   am
     5    33    30    1
     6    30    29    1
     7    29    23    1
     8    23    24   ar
     9    24    25   ar
    10    25    26   ar
    11    26    27   ar
    12    27    28   ar
    13    28     1    1
    14     1     2   ar
    15     2     3   ar
    16     3     4   ar
    17     8     4    1
    18     8     9    1
    19     9    10    1
    20    10    11    1
    21    11    12    1
    22    12    13    1
    23    13    15    1
    24    15    16   ar
    25    16    17   ar
    26    17    18   ar
    27    18    19    1
    28    18    20   ar
    29    20    21    2
    30    20    22   ar
    31     4     5   ar
    32     5     6    1
    33     5     7   ar
    34    28    23   ar
    35     7     1   ar
    36    13     8    1
    37    22    15   ar
    38    33    34    1
    39    10    14    1
@<TRIPOS>MOLECULE
*****
 36 39 0 0 0
SMALL
GASTEIGER

@<TRIPOS>ATOM
      1 C         142.3463  139.2114  161.6040 C.ar    1  UNL1        0.0005
      2 C         141.1298  139.0541  162.4674 C.ar    1  UNL1       -0.0003
      3 C         141.2184  139.3125  163.9423 C.ar    1  UNL1       -0.0034
      4 C         142.5236  139.7281  164.5539 C.ar    1  UNL1       -0.0103
      5 C         143.7400  139.8853  163.6905 C.ar    1  UNL1        0.0537
      6 CL        145.0451  140.3009  164.3020 Cl      1  UNL1       -0.0826
      7 C         143.6514  139.6270  162.2155 C.ar    1  UNL1        0.0111
      8 C         142.6122  139.9864  166.0287 C.3     1  UNL1        0.0430
      9 C         142.9853  138.8745  166.9638 C.3     1  UNL1        0.0733
     10 N         143.0740  139.1328  168.4388 N.3     1  UNL1       -0.2972
     11 C         142.7894  140.5031  168.9786 C.3     1  UNL1        0.0689
     12 C         142.4162  141.6150  168.0435 C.3     1  UNL1        0.0218
     13 C         142.3276  141.3567  166.5686 C.3     1  UNL1        0.0293
     14 H         144.0247  138.8961  168.7226 H       1  UNL1        0.1233
     15 C         141.9544  142.4686  165.6336 C.ar    1  UNL1       -0.0159
     16 C         140.5105  142.8079  165.4102 C.ar    1  UNL1        0.0146
     17 C         140.1374  143.9199  164.4751 C.ar    1  UNL1        0.0781
     18 N         141.2081  144.6925  163.7634 N.ar    1  UNL1       -0.2922
     19 C         140.8350  145.8045  162.8283 C.3     1  UNL1        0.1336
     20 C         142.6521  144.3531  163.9868 C.ar    1  UNL1        0.2607
     21 O         143.7229  145.1258  163.2750 O.2     1  UNL1       -0.2670
     22 C         143.0252  143.2412  164.9218 C.ar    1  UNL1        0.0565
     23 C         141.6074  139.9613  159.2287 C.ar    1  UNL1       -0.0205
     24 C         141.5187  139.7029  157.7539 C.ar    1  UNL1       -0.0042
     25 C         142.0803  138.4362  157.1792 C.ar    1  UNL1       -0.0003
     26 C         142.7306  137.4280  158.0795 C.ar    1  UNL1       -0.0000
     27 C         142.8192  137.6864  159.5544 C.ar    1  UNL1       -0.0003
     28 C         142.2576  138.9530  160.1290 C.ar    1  UNL1       -0.0039
     29 C         141.0457  141.2279  159.8034 C.3     1  UNL1        0.0476
     30 C         139.5617  141.4436  159.8352 C.3     1  UNL1        0.0941
     31 C         138.1330  142.1814  161.8760 C.2     1  UNL1        0.2225
     32 O         138.2686  143.6141  161.4530 O.2     1  UNL1       -0.2751
     33 N         138.7796  141.0961  161.0671 N.am    1  UNL1       -0.3040
     34 H         138.6905  140.1558  161.3447 H       1  UNL1        0.1494
     35 C         137.8023  140.7079  163.9901 C.3     1  UNL1        0.0101
     36 C         137.3509  141.8338  163.1078 C.3     1  UNL1        0.0851
@<TRIPOS>BOND
     1    35    36    1
     2    36    31    1
     3    31    32    2
     4    31    33   am
     5    33    30    1
     6    30    29    1
     7    29    23    1
     8    23    24   ar
     9    24    25   ar
    10    25    26   ar
    11    26    27   ar
    12    27    28   ar
    13    28     1    1
    14     1     2   ar
    15     2     3   ar
    16     3     4   ar
    17     8     4    1
    18     8     9    1
    19     9    10    1
    20    10    11    1
    21    11    12    1
    22    12    13    1
    23    13    15    1
    24    15    16   ar
    25    16    17   ar
    26    17    18   ar
    27    18    19    1
    28    18    20   ar
    29    20    21    2
    30    20    22   ar
    31     4     5   ar
    32     5     6    1
    33     5     7   ar
    34    28    23   ar
    35     7     1   ar
    36    13     8    1
    37    22    15   ar
    38    33    34    1
    39    10    14    1
@<TRIPOS>MOLECULE
*****
 36 39 0 0 0
SMALL
GASTEIGER

@<TRIPOS>ATOM
      1 C         139.7292  140.8137  163.0482 C.ar    1  UNL1        0.0005
      2 C         141.0488  141.5031  163.2316 C.ar    1  UNL1       -0.0003
      3 C         141.5501  142.4536  162.1851 C.ar    1  UNL1       -0.0034
      4 C         140.7319  142.7148  160.9553 C.ar    1  UNL1       -0.0103
      5 C         139.4124  142.0254  160.7720 C.ar    1  UNL1        0.0537
      6 CL        138.5942  142.2866  159.5422 Cl      1  UNL1       -0.0826
      7 C         138.9111  141.0748  161.8185 C.ar    1  UNL1        0.0111
      8 C         141.2332  143.6654  159.9089 C.3     1  UNL1        0.0430
      9 C         141.0403  145.1426  160.0834 C.3     1  UNL1        0.0733
     10 N         141.5417  146.0933  159.0369 N.3     1  UNL1       -0.2972
     11 C         142.2359  145.5666  157.8160 C.3     1  UNL1        0.0689
     12 C         142.4288  144.0893  157.6415 C.3     1  UNL1        0.0218
     13 C         141.9274  143.1387  158.6879 C.3     1  UNL1        0.0293
     14 H         142.1976  146.7221  159.5003 H       1  UNL1        0.1233
     15 C         142.1203  141.6615  158.5134 C.ar    1  UNL1       -0.0159
     16 C         141.3737  140.9295  157.4379 C.ar    1  UNL1        0.0146
     17 C         141.5666  139.4521  157.2635 C.ar    1  UNL1        0.0781
     18 N         142.5061  138.7069  158.1645 N.ar    1  UNL1       -0.2922
     19 C         142.6991  137.2296  157.9900 C.3     1  UNL1        0.1336
     20 C         143.2528  139.4389  159.2400 C.ar    1  UNL1        0.2607
     21 O         144.1923  138.6936  160.1410 O.2     1  UNL1       -0.2670
     22 C         143.0599  140.9161  159.4145 C.ar    1  UNL1        0.0565
     23 C         139.4459  138.3877  163.9341 C.ar    1  UNL1       -0.0205
     24 C         138.9446  137.4372  164.9806 C.ar    1  UNL1       -0.0042
     25 C         138.2253  137.9620  166.1877 C.ar    1  UNL1       -0.0003
     26 C         138.0074  139.4374  166.3484 C.ar    1  UNL1       -0.0000
     27 C         138.5087  140.3879  165.3019 C.ar    1  UNL1       -0.0003
     28 C         139.2279  139.8631  164.0948 C.ar    1  UNL1       -0.0039
     29 C         140.1652  137.8629  162.7269 C.3     1  UNL1        0.0476
     30 C         141.5916  137.4131  162.8404 C.3     1  UNL1        0.0941
     31 C         143.2996  138.7729  164.2489 C.2     1  UNL1        0.2225
     32 O         142.8034  138.1040  165.4964 O.2     1  UNL1       -0.2751
     33 N         142.6937  138.4275  162.9209 N.am    1  UNL1       -0.3040
     34 H         143.0194  138.8665  162.1021 H       1  UNL1        0.1494
     35 C         144.8161  140.5434  163.1020 C.3     1  UNL1        0.0101
     36 C         144.4018  139.7872  164.3293 C.3     1  UNL1        0.0851
@<TRIPOS>BOND
     1    35    36    1
     2    36    31    1
     3    31    32    2
     4    31    33   am
     5    33    30    1
     6    30    29    1
     7    29    23    1
     8    23    24   ar
     9    24    25   ar
    10    25    26   ar
    11    26    27   ar
    12    27    28   ar
    13    28     1    1
    14     1     2   ar
    15     2     3   ar
    16     3     4   ar
    17     8     4    1
    18     8     9    1
    19     9    10    1
    20    10    11    1
    21    11    12    1
    22    12    13    1
    23    13    15    1
    24    15    16   ar
    25    16    17   ar
    26    17    18   ar
    27    18    19    1
    28    18    20   ar
    29    20    21    2
    30    20    22   ar
    31     4     5   ar
    32     5     6    1
    33     5     7   ar
    34    28    23   ar
    35     7     1   ar
    36    13     8    1
    37    22    15   ar
    38    33    34    1
    39    10    14    1
@<TRIPOS>MOLECULE
*****
 36 39 0 0 0
SMALL
GASTEIGER

@<TRIPOS>ATOM
      1 C         140.8044  142.4612  166.0191 C.ar    1  UNL1        0.0005
      2 C         141.9936  143.1604  165.4302 C.ar    1  UNL1       -0.0003
      3 C         141.8741  143.8592  164.1083 C.ar    1  UNL1       -0.0034
      4 C         140.5654  143.8589  163.3754 C.ar    1  UNL1       -0.0103
      5 C         139.3761  143.1598  163.9643 C.ar    1  UNL1        0.0537
      6 CL        138.0674  143.1595  163.2315 Cl      1  UNL1       -0.0826
      7 C         139.4956  142.4609  165.2863 C.ar    1  UNL1        0.0111
      8 C         140.4459  144.5578  162.0535 C.3     1  UNL1        0.0430
      9 C         139.6900  145.8495  161.9538 C.3     1  UNL1        0.0733
     10 N         139.5705  146.5484  160.6319 N.3     1  UNL1       -0.2972
     11 C         140.2069  145.9555  159.4098 C.3     1  UNL1        0.0689
     12 C         140.9628  144.6637  159.5096 C.3     1  UNL1        0.0218
     13 C         141.0823  143.9649  160.8315 C.3     1  UNL1        0.0293
     14 H         139.9737  147.4775  160.7525 H       1  UNL1        0.1233
     15 C         141.8382  142.6731  160.9313 C.ar    1  UNL1       -0.0159
     16 C         143.3379  142.6819  160.9586 C.ar    1  UNL1        0.0146
     17 C         144.0938  141.3901  161.0583 C.ar    1  UNL1        0.0781
     18 N         143.3500  140.0896  161.1308 N.ar    1  UNL1       -0.2922
     19 C         144.1059  138.7977  161.2306 C.3     1  UNL1        0.1336
     20 C         141.8503  140.0808  161.1035 C.ar    1  UNL1        0.2607
     21 O         141.1065  138.7801  161.1760 O.2     1  UNL1       -0.2670
     22 C         141.0944  141.3725  161.0037 C.ar    1  UNL1        0.0565
     23 C         141.4744  140.3686  167.4055 C.ar    1  UNL1       -0.0205
     24 C         141.5939  139.6698  168.7273 C.ar    1  UNL1       -0.0042
     25 C         141.1629  140.3648  169.9848 C.ar    1  UNL1       -0.0003
     26 C         140.6124  141.7586  169.9204 C.ar    1  UNL1       -0.0000
     27 C         140.4929  142.4574  168.5985 C.ar    1  UNL1       -0.0003
     28 C         140.9239  141.7624  167.3411 C.ar    1  UNL1       -0.0039
     29 C         141.9054  139.6736  166.1480 C.3     1  UNL1        0.0476
     30 C         141.0147  138.6451  165.5165 C.3     1  UNL1        0.0941
     31 C         138.8507  139.2472  164.2107 C.2     1  UNL1        0.2225
     32 O         138.0752  139.2443  165.4946 O.2     1  UNL1       -0.2751
     33 N         140.3205  138.9476  164.2216 N.am    1  UNL1       -0.3040
     34 H         140.8296  138.9496  163.3789 H       1  UNL1        0.1494
     35 C         137.8739  138.4457  161.9407 C.3     1  UNL1        0.0101
     36 C         138.1566  139.5497  162.9159 C.3     1  UNL1        0.0851
@<TRIPOS>BOND
     1    35    36    1
     2    36    31    1
     3    31    32    2
     4    31    33   am
     5    33    30    1
     6    30    29    1
     7    29    23    1
     8    23    24   ar
     9    24    25   ar
    10    25    26   ar
    11    26    27   ar
    12    27    28   ar
    13    28     1    1
    14     1     2   ar
    15     2     3   ar
    16     3     4   ar
    17     8     4    1
    18     8     9    1
    19     9    10    1
    20    10    11    1
    21    11    12    1
    22    12    13    1
    23    13    15    1
    24    15    16   ar
    25    16    17   ar
    26    17    18   ar
    27    18    19    1
    28    18    20   ar
    29    20    21    2
    30    20    22   ar
    31     4     5   ar
    32     5     6    1
    33     5     7   ar
    34    28    23   ar
    35     7     1   ar
    36    13     8    1
    37    22    15   ar
    38    33    34    1
    39    10    14    1
@<TRIPOS>MOLECULE
*****
 36 39 0 0 0
SMALL
GASTEIGER

@<TRIPOS>ATOM
      1 C         140.3276  139.1393  163.3192 C.ar    1  UNL1        0.0005
      2 C         139.6918  139.7916  162.1275 C.ar    1  UNL1       -0.0003
      3 C         140.4906  140.0101  160.8769 C.ar    1  UNL1       -0.0034
      4 C         141.9253  139.5762  160.8179 C.ar    1  UNL1       -0.0103
      5 C         142.5611  138.9239  162.0097 C.ar    1  UNL1        0.0537
      6 CL        143.9958  138.4900  161.9508 Cl      1  UNL1       -0.0826
      7 C         141.7622  138.7054  163.2603 C.ar    1  UNL1        0.0111
      8 C         142.7241  139.7947  159.5673 C.3     1  UNL1        0.0430
      9 C         142.7218  138.7563  158.4849 C.3     1  UNL1        0.0733
     10 N         143.5206  138.9747  157.2342 N.3     1  UNL1       -0.2972
     11 C         144.3218  140.2316  157.0660 C.3     1  UNL1        0.0689
     12 C         144.3242  141.2701  158.1485 C.3     1  UNL1        0.0218
     13 C         143.5254  141.0516  159.3991 C.3     1  UNL1        0.0293
     14 H         142.8635  138.9379  156.4549 H       1  UNL1        0.1233
     15 C         143.5277  142.0900  160.4815 C.ar    1  UNL1       -0.0159
     16 C         144.6305  142.1112  161.4981 C.ar    1  UNL1        0.0146
     17 C         144.6328  143.1497  162.5806 C.ar    1  UNL1        0.0781
     18 N         143.5325  144.1669  162.6463 N.ar    1  UNL1       -0.2922
     19 C         143.5348  145.2054  163.7288 C.3     1  UNL1        0.1336
     20 C         142.4297  144.1458  161.6297 C.ar    1  UNL1        0.2607
     21 O         141.3293  145.1631  161.6955 O.2     1  UNL1       -0.2670
     22 C         142.4274  143.1073  160.5473 C.ar    1  UNL1        0.0565
     23 C         139.3950  140.0245  165.5769 C.ar    1  UNL1       -0.0205
     24 C         138.5962  139.8060  166.8274 C.ar    1  UNL1       -0.0042
     25 C         137.9309  138.4838  167.0711 C.ar    1  UNL1       -0.0003
     26 C         138.0646  137.3802  166.0641 C.ar    1  UNL1       -0.0000
     27 C         138.8634  137.5987  164.8135 C.ar    1  UNL1       -0.0003
     28 C         139.5287  138.9208  164.5699 C.ar    1  UNL1       -0.0039
     29 C         140.0603  141.3467  165.3332 C.3     1  UNL1        0.0476
     30 C         140.2321  142.3191  166.4623 C.3     1  UNL1        0.0941
     31 C         141.1786  142.7904  168.8355 C.2     1  UNL1        0.2225
     32 O         140.0825  143.7860  169.0749 O.2     1  UNL1       -0.2751
     33 N         141.2534  142.0570  167.5291 N.am    1  UNL1       -0.3040
     34 H         141.9729  141.4035  167.3719 H       1  UNL1        0.1494
     35 C         143.6136  142.2000  169.5228 C.3     1  UNL1        0.0101
     36 C         142.2000  142.5283  169.9023 C.3     1  UNL1        0.0851
@<TRIPOS>BOND
     1    35    36    1
     2    36    31    1
     3    31    32    2
     4    31    33   am
     5    33    30    1
     6    30    29    1
     7    29    23    1
     8    23    24   ar
     9    24    25   ar
    10    25    26   ar
    11    26    27   ar
    12    27    28   ar
    13    28     1    1
    14     1     2   ar
    15     2     3   ar
    16     3     4   ar
    17     8     4    1
    18     8     9    1
    19     9    10    1
    20    10    11    1
    21    11    12    1
    22    12    13    1
    23    13    15    1
    24    15    16   ar
    25    16    17   ar
    26    17    18   ar
    27    18    19    1
    28    18    20   ar
    29    20    21    2
    30    20    22   ar
    31     4     5   ar
    32     5     6    1
    33     5     7   ar
    34    28    23   ar
    35     7     1   ar
    36    13     8    1
    37    22    15   ar
    38    33    34    1
    39    10    14    1
