@<TRIPOS>MOLECULE
*****
 16 17 0 0 0
SMALL
GASTEIGER

@<TRIPOS>ATOM
      1 C         142.2407  137.9621  164.1538 C.3     1  UNL1        0.0899
      2 N         141.1181  138.3629  165.0644 N.3     1  UNL1       -0.2674
      3 C         139.7876  137.7344  164.7728 C.3     1  UNL1        0.0986
      4 C         138.4849  137.9270  165.4909 C.2     1  UNL1       -0.0134
      5 C         138.1908  138.7955  166.6780 C.2     1  UNL1       -0.0289
      6 C         139.1268  139.6860  167.4401 C.3     1  UNL1        0.0315
      7 C         140.5881  139.9279  167.2034 C.3     1  UNL1        0.0427
      8 C         141.4743  139.3391  166.1462 C.3     1  UNL1        0.0771
      9 C         141.2509  140.8853  168.1490 C.ar    1  UNL1       -0.0199
     10 C         142.6472  140.6201  168.6286 C.ar    1  UNL1       -0.0033
     11 C         143.3100  141.5775  169.5743 C.ar    1  UNL1        0.0119
     12 C         142.5764  142.8000  170.0403 C.ar    1  UNL1        0.0682
     13 CL        143.2391  143.7574  170.9860 Cl      1  UNL1       -0.0814
     14 C         141.1800  143.0652  169.5608 C.ar    1  UNL1        0.0679
     15 CL        140.4465  144.2877  170.0268 Cl      1  UNL1       -0.0814
     16 C         140.5173  142.1079  168.6151 C.ar    1  UNL1        0.0080
@<TRIPOS>BOND
     1     1     2    1
     2     2     3    1
     3     3     4    1
     4     4     5    2
     5     5     6    1
     6     6     7    1
     7     7     9    1
     8     9    10   ar
     9    10    11   ar
    10    11    12   ar
    11    12    13    1
    12    12    14   ar
    13    14    15    1
    14    14    16   ar
    15     7     8    1
    16     8     2    1
    17    16     9   ar
@<TRIPOS>MOLECULE
*****
 16 17 0 0 0
SMALL
GASTEIGER

@<TRIPOS>ATOM
      1 C         138.5291  140.2137  170.1384 C.3     1  UNL1        0.0899
      2 N         139.6704  139.9508  169.2013 N.3     1  UNL1       -0.2674
      3 C         141.0324  139.9130  169.8289 C.3     1  UNL1        0.0986
      4 C         142.3591  139.6755  169.1707 C.2     1  UNL1       -0.0134
      5 C         142.6518  139.4171  167.7224 C.2     1  UNL1       -0.0289
      6 C         141.6899  139.3325  166.5745 C.3     1  UNL1        0.0315
      7 C         140.1977  139.4852  166.5915 C.3     1  UNL1        0.0427
      8 C         139.2990  139.7604  167.7604 C.3     1  UNL1        0.0771
      9 C         139.5139  139.3441  165.2639 C.ar    1  UNL1       -0.0199
     10 C         139.6155  138.0566  164.5009 C.ar    1  UNL1       -0.0033
     11 C         138.9317  137.9155  163.1733 C.ar    1  UNL1        0.0119
     12 C         138.1463  139.0620  162.6087 C.ar    1  UNL1        0.0682
     13 CL        137.4626  138.9209  161.2811 Cl      1  UNL1       -0.0814
     14 C         138.0447  140.3495  163.3716 C.ar    1  UNL1        0.0679
     15 CL        137.2594  141.4959  162.8070 Cl      1  UNL1       -0.0814
     16 C         138.7285  140.4906  164.6992 C.ar    1  UNL1        0.0080
@<TRIPOS>BOND
     1     1     2    1
     2     2     3    1
     3     3     4    1
     4     4     5    2
     5     5     6    1
     6     6     7    1
     7     7     9    1
     8     9    10   ar
     9    10    11   ar
    10    11    12   ar
    11    12    13    1
    12    12    14   ar
    13    14    15    1
    14    14    16   ar
    15     7     8    1
    16     8     2    1
    17    16     9   ar
@<TRIPOS>MOLECULE
*****
 16 17 0 0 0
SMALL
GASTEIGER

@<TRIPOS>ATOM
      1 C         138.1516  139.9767  163.2188 C.3     1  UNL1        0.0899
      2 N         138.4070  141.3914  163.6471 N.3     1  UNL1       -0.2674
      3 C         137.6390  142.4448  162.9049 C.3     1  UNL1        0.0986
      4 C         137.6710  143.9325  163.0933 C.2     1  UNL1       -0.0134
      5 C         138.4788  144.7344  164.0702 C.2     1  UNL1       -0.0289
      6 C         139.4541  144.2466  165.1001 C.3     1  UNL1        0.0315
      7 C         139.8625  142.8364  165.4074 C.3     1  UNL1        0.0427
      8 C         139.3966  141.5657  164.7608 C.3     1  UNL1        0.0771
      9 C         140.8702  142.6756  166.5068 C.ar    1  UNL1       -0.0199
     10 C         142.3093  142.4151  166.1731 C.ar    1  UNL1       -0.0033
     11 C         143.3170  142.2543  167.2725 C.ar    1  UNL1        0.0119
     12 C         142.8857  142.3540  168.7056 C.ar    1  UNL1        0.0682
     13 CL        143.8934  142.1933  169.8050 Cl      1  UNL1       -0.0814
     14 C         141.4467  142.6145  169.0395 C.ar    1  UNL1        0.0679
     15 CL        141.0154  142.7143  170.4726 Cl      1  UNL1       -0.0814
     16 C         140.4389  142.7753  167.9401 C.ar    1  UNL1        0.0080
@<TRIPOS>BOND
     1     1     2    1
     2     2     3    1
     3     3     4    1
     4     4     5    2
     5     5     6    1
     6     6     7    1
     7     7     9    1
     8     9    10   ar
     9    10    11   ar
    10    11    12   ar
    11    12    13    1
    12    12    14   ar
    13    14    15    1
    14    14    16   ar
    15     7     8    1
    16     8     2    1
    17    16     9   ar
@<TRIPOS>MOLECULE
*****
 16 17 0 0 0
SMALL
GASTEIGER

@<TRIPOS>ATOM
      1 C         137.6864  142.3012  162.8705 C.3     1  UNL1        0.0899
      2 N         138.1547  140.9061  163.1610 N.3     1  UNL1       -0.2674
      3 C         137.8206  139.8776  162.1214 C.3     1  UNL1        0.0986
      4 C         138.1445  138.4131  162.1169 C.2     1  UNL1       -0.0134
      5 C         138.8826  137.6152  163.1506 C.2     1  UNL1       -0.0289
      6 C         139.4790  138.0848  164.4443 C.3     1  UNL1        0.0315
      7 C         139.4847  139.4684  165.0237 C.3     1  UNL1        0.0427
      8 C         138.8954  140.7239  164.4527 C.3     1  UNL1        0.0771
      9 C         140.1704  139.6159  166.3497 C.ar    1  UNL1       -0.0199
     10 C         141.6598  139.4651  166.4447 C.ar    1  UNL1       -0.0033
     11 C         142.3455  139.6125  167.7706 C.ar    1  UNL1        0.0119
     12 C         141.5418  139.9108  169.0015 C.ar    1  UNL1        0.0682
     13 CL        142.2276  140.0582  170.3274 Cl      1  UNL1       -0.0814
     14 C         140.0524  140.0616  168.9065 C.ar    1  UNL1        0.0679
     15 CL        139.2488  140.3598  170.1374 Cl      1  UNL1       -0.0814
     16 C         139.3667  139.9141  167.5806 C.ar    1  UNL1        0.0080
@<TRIPOS>BOND
     1     1     2    1
     2     2     3    1
     3     3     4    1
     4     4     5    2
     5     5     6    1
     6     6     7    1
     7     7     9    1
     8     9    10   ar
     9    10    11   ar
    10    11    12   ar
    11    12    13    1
    12    12    14   ar
    13    14    15    1
    14    14    16   ar
    15     7     8    1
    16     8     2    1
    17    16     9   ar
@<TRIPOS>MOLECULE
*****
 16 17 0 0 0
SMALL
GASTEIGER

@<TRIPOS>ATOM
      1 C         144.0559  144.4091  164.5235 C.3     1  UNL1        0.0899
      2 N         144.0442  142.9181  164.6871 N.3     1  UNL1       -0.2674
      3 C         145.0571  142.1662  163.8753 C.3     1  UNL1        0.0986
      4 C         145.2970  140.6868  163.8169 C.2     1  UNL1       -0.0134
      5 C         144.5835  139.5936  164.5557 C.2     1  UNL1       -0.0289
      6 C         143.4536  139.7100  165.5354 C.3     1  UNL1        0.0315
      7 C         142.7584  140.9483  166.0184 C.3     1  UNL1        0.0427
      8 C         143.0212  142.3760  165.6409 C.3     1  UNL1        0.0771
      9 C         141.6543  140.7300  167.0100 C.ar    1  UNL1       -0.0199
     10 C         141.7692  141.2916  168.3963 C.ar    1  UNL1       -0.0033
     11 C         140.6651  141.0732  169.3879 C.ar    1  UNL1        0.0119
     12 C         139.4461  140.2933  168.9933 C.ar    1  UNL1        0.0682
     13 CL        138.3420  140.0750  169.9849 Cl      1  UNL1       -0.0814
     14 C         139.3311  139.7318  167.6071 C.ar    1  UNL1        0.0679
     15 CL        138.1121  138.9519  167.2126 Cl      1  UNL1       -0.0814
     16 C         140.4352  139.9501  166.6155 C.ar    1  UNL1        0.0080
@<TRIPOS>BOND
     1     1     2    1
     2     2     3    1
     3     3     4    1
     4     4     5    2
     5     5     6    1
     6     6     7    1
     7     7     9    1
     8     9    10   ar
     9    10    11   ar
    10    11    12   ar
    11    12    13    1
    12    12    14   ar
    13    14    15    1
    14    14    16   ar
    15     7     8    1
    16     8     2    1
    17    16     9   ar
@<TRIPOS>MOLECULE
*****
 16 17 0 0 0
SMALL
GASTEIGER

@<TRIPOS>ATOM
      1 C         143.7406  138.6983  162.7963 C.3     1  UNL1        0.0899
      2 N         143.8416  139.9441  163.6257 N.3     1  UNL1       -0.2674
      3 C         144.8765  140.9369  163.1856 C.3     1  UNL1        0.0986
      4 C         145.2196  142.2630  163.7966 C.2     1  UNL1       -0.0134
      5 C         144.6127  142.9242  164.9985 C.2     1  UNL1       -0.0289
      6 C         143.5127  142.4223  165.8863 C.3     1  UNL1        0.0315
      7 C         142.7480  141.1354  165.7914 C.3     1  UNL1        0.0427
      8 C         142.8943  140.0325  164.7854 C.3     1  UNL1        0.0771
      9 C         141.6980  140.9233  166.8415 C.ar    1  UNL1       -0.0199
     10 C         141.8578  141.5434  168.1980 C.ar    1  UNL1       -0.0033
     11 C         140.8079  141.3314  169.2481 C.ar    1  UNL1        0.0119
     12 C         139.5981  140.4992  168.9416 C.ar    1  UNL1        0.0682
     13 CL        138.5481  140.2872  169.9917 Cl      1  UNL1       -0.0814
     14 C         139.4382  139.8791  167.5852 C.ar    1  UNL1        0.0679
     15 CL        138.2284  139.0470  167.2788 Cl      1  UNL1       -0.0814
     16 C         140.4881  140.0912  166.5351 C.ar    1  UNL1        0.0080
@<TRIPOS>BOND
     1     1     2    1
     2     2     3    1
     3     3     4    1
     4     4     5    2
     5     5     6    1
     6     6     7    1
     7     7     9    1
     8     9    10   ar
     9    10    11   ar
    10    11    12   ar
    11    12    13    1
    12    12    14   ar
    13    14    15    1
    14    14    16   ar
    15     7     8    1
    16     8     2    1
    17    16     9   ar
@<TRIPOS>MOLECULE
*****
 16 17 0 0 0
SMALL
GASTEIGER

@<TRIPOS>ATOM
      1 C         155.0607  128.4941  167.0152 C.3     1  UNL1        0.0899
      2 N         155.1511  128.8274  165.5556 N.3     1  UNL1       -0.2674
      3 C         155.4180  127.6703  164.6390 C.3     1  UNL1        0.0986
      4 C         155.5623  127.6739  163.1460 C.2     1  UNL1       -0.0134
      5 C         155.4754  128.8353  162.2007 C.2     1  UNL1       -0.0289
      6 C         155.2228  130.2801  162.5150 C.3     1  UNL1        0.0315
      7 C         154.9946  130.9202  163.8523 C.3     1  UNL1        0.0427
      8 C         154.9627  130.2738  165.2053 C.3     1  UNL1        0.0771
      9 C         154.7685  132.4030  163.8339 C.ar    1  UNL1       -0.0199
     10 C         154.6794  133.1320  162.5259 C.ar    1  UNL1       -0.0033
     11 C         154.4532  134.6147  162.5075 C.ar    1  UNL1        0.0119
     12 C         154.3161  135.3684  163.7970 C.ar    1  UNL1        0.0682
     13 CL        154.0899  136.8512  163.7786 Cl      1  UNL1       -0.0814
     14 C         154.4051  134.6395  165.1050 C.ar    1  UNL1        0.0679
     15 CL        154.2680  135.3933  166.3945 Cl      1  UNL1       -0.0814
     16 C         154.6313  133.1568  165.1234 C.ar    1  UNL1        0.0080
@<TRIPOS>BOND
     1     1     2    1
     2     2     3    1
     3     3     4    1
     4     4     5    2
     5     5     6    1
     6     6     7    1
     7     7     9    1
     8     9    10   ar
     9    10    11   ar
    10    11    12   ar
    11    12    13    1
    12    12    14   ar
    13    14    15    1
    14    14    16   ar
    15     7     8    1
    16     8     2    1
    17    16     9   ar
@<TRIPOS>MOLECULE
*****
 16 17 0 0 0
SMALL
GASTEIGER

@<TRIPOS>ATOM
      1 C         145.3046  141.7699  163.5385 C.3     1  UNL1        0.0899
      2 N         144.0698  142.5973  163.7401 N.3     1  UNL1       -0.2674
      3 C         144.1733  144.0339  163.3212 C.3     1  UNL1        0.0986
      4 C         143.1274  145.1066  163.3927 C.2     1  UNL1       -0.0134
      5 C         141.7195  145.0078  163.9008 C.2     1  UNL1       -0.0289
      6 C         141.0099  143.8118  164.4629 C.3     1  UNL1        0.0315
      7 C         141.5330  142.4192  164.6557 C.3     1  UNL1        0.0427
      8 C         142.8946  141.8787  164.3341 C.3     1  UNL1        0.0771
      9 C         140.5663  141.4372  165.2485 C.ar    1  UNL1       -0.0199
     10 C         139.6756  140.6277  164.3533 C.ar    1  UNL1       -0.0033
     11 C         138.7090  139.6458  164.9461 C.ar    1  UNL1        0.0119
     12 C         138.6331  139.4734  166.4342 C.ar    1  UNL1        0.0682
     13 CL        137.6665  138.4914  167.0271 Cl      1  UNL1       -0.0814
     14 C         139.5238  140.2828  167.3295 C.ar    1  UNL1        0.0679
     15 CL        139.4478  140.1104  168.8175 Cl      1  UNL1       -0.0814
     16 C         140.4904  141.2648  166.7367 C.ar    1  UNL1        0.0080
@<TRIPOS>BOND
     1     1     2    1
     2     2     3    1
     3     3     4    1
     4     4     5    2
     5     5     6    1
     6     6     7    1
     7     7     9    1
     8     9    10   ar
     9    10    11   ar
    10    11    12   ar
    11    12    13    1
    12    12    14   ar
    13    14    15    1
    14    14    16   ar
    15     7     8    1
    16     8     2    1
    17    16     9   ar
@<TRIPOS>MOLECULE
*****
 16 17 0 0 0
SMALL
GASTEIGER

@<TRIPOS>ATOM
      1 C         143.5622  138.8023  163.1646 C.3     1  UNL1        0.0899
      2 N         142.1681  138.6349  163.6924 N.3     1  UNL1       -0.2674
      3 C         141.2150  137.9049  162.7931 C.3     1  UNL1        0.0986
      4 C         139.7700  137.5794  163.0290 C.2     1  UNL1       -0.0134
      5 C         138.9209  137.9034  164.2224 C.2     1  UNL1       -0.0289
      6 C         139.3074  138.6331  165.4747 C.3     1  UNL1        0.0315
      7 C         140.6383  139.2189  165.8428 C.3     1  UNL1        0.0427
      8 C         141.9114  139.2197  165.0497 C.3     1  UNL1        0.0771
      9 C         140.7049  139.8930  167.1811 C.ar    1  UNL1       -0.0199
     10 C         139.4877  139.9446  168.0564 C.ar    1  UNL1       -0.0033
     11 C         139.5543  140.6187  169.3947 C.ar    1  UNL1        0.0119
     12 C         140.8380  141.2412  169.8578 C.ar    1  UNL1        0.0682
     13 CL        140.9046  141.9153  171.1962 Cl      1  UNL1       -0.0814
     14 C         142.0552  141.1896  168.9827 C.ar    1  UNL1        0.0679
     15 CL        143.3388  141.8121  169.4458 Cl      1  UNL1       -0.0814
     16 C         141.9886  140.5155  167.6443 C.ar    1  UNL1        0.0080
@<TRIPOS>BOND
     1     1     2    1
     2     2     3    1
     3     3     4    1
     4     4     5    2
     5     5     6    1
     6     6     7    1
     7     7     9    1
     8     9    10   ar
     9    10    11   ar
    10    11    12   ar
    11    12    13    1
    12    12    14   ar
    13    14    15    1
    14    14    16   ar
    15     7     8    1
    16     8     2    1
    17    16     9   ar
