@<TRIPOS>MOLECULE
*****
 27 30 0 0 0
SMALL
GASTEIGER

@<TRIPOS>ATOM
      1 C         138.1890  139.1209  166.2193 C.3     1  UNL1        0.0340
      2 C         139.2440  139.6591  165.2988 C.ar    1  UNL1        0.0125
      3 C         139.0598  139.9982  163.8493 C.ar    1  UNL1        0.0924
      4 N         140.3704  140.5014  163.3209 N.ar    1  UNL1       -0.1671
      5 N         141.3646  140.4732  164.4438 N.ar    1  UNL1       -0.2119
      6 C         140.6684  139.9526  165.6662 C.ar    1  UNL1        0.0832
      7 C         142.8025  140.8920  164.3591 C.ar    1  UNL1        0.1743
      8 N         143.8533  139.8928  163.9755 N.ar    1  UNL1       -0.2243
      9 C         145.2912  140.3116  163.8908 C.ar    1  UNL1        0.1006
     10 C         145.6781  141.7296  164.1897 C.ar    1  UNL1        0.0217
     11 C         144.6272  142.7288  164.5733 C.ar    1  UNL1        0.0161
     12 C         143.1894  142.3101  164.6580 C.ar    1  UNL1        0.0934
     13 CL        142.1385  143.3093  165.0416 Cl      1  UNL1       -0.0790
     14 C         141.2878  139.7594  167.0186 C.ar    1  UNL1        0.0367
     15 C         140.6242  140.3313  168.2362 C.ar    1  UNL1        0.0046
     16 C         141.2436  140.1382  169.5886 C.ar    1  UNL1        0.0207
     17 C         142.5267  139.3731  169.7234 C.ar    1  UNL1        0.0989
     18 N         143.1904  138.8011  168.5058 N.ar    1  UNL1       -0.2423
     19 C         142.5710  138.9943  167.1534 C.ar    1  UNL1        0.1003
     20 C         137.7884  139.8588  163.0658 C.3     1  UNL1        0.1166
     21 N         136.9275  141.0608  162.8130 N.3     1  UNL1       -0.2935
     22 H         136.0693  140.9260  163.3474 H       1  UNL1        0.1236
     23 C         137.4360  142.4314  163.1489 C.3     1  UNL1        0.0543
     24 C         137.9816  143.4329  162.1745 C.3     1  UNL1        0.0157
     25 C         138.3709  144.6616  162.9416 C.3     1  UNL1        0.0014
     26 C         138.0660  144.4197  164.3902 C.3     1  UNL1        0.0014
     27 C         137.4881  143.0414  164.5183 C.3     1  UNL1        0.0157
@<TRIPOS>BOND
     1     1     2    1
     2     2     3   ar
     3     3    20    1
     4    20    21    1
     5    21    23    1
     6    23    24    1
     7    24    25    1
     8    25    26    1
     9    26    27    1
    10     3     4   ar
    11     4     5   ar
    12     5     7    1
    13     7     8   ar
    14     8     9   ar
    15     9    10   ar
    16    10    11   ar
    17    11    12   ar
    18    12    13    1
    19     5     6   ar
    20     6    14    1
    21    14    15   ar
    22    15    16   ar
    23    16    17   ar
    24    17    18   ar
    25    18    19   ar
    26     6     2   ar
    27    19    14   ar
    28    27    23    1
    29    12     7   ar
    30    21    22    1
@<TRIPOS>MOLECULE
*****
 27 30 0 0 0
SMALL
GASTEIGER

@<TRIPOS>ATOM
      1 C         139.2786  139.8932  168.8564 C.3     1  UNL1        0.0340
      2 C         139.7153  140.4986  167.5553 C.ar    1  UNL1        0.0125
      3 C         139.1776  140.1540  166.1980 C.ar    1  UNL1        0.0924
      4 N         139.8963  140.9973  165.1870 N.ar    1  UNL1       -0.1671
      5 N         140.8781  141.8631  165.9194 N.ar    1  UNL1       -0.2119
      6 C         140.7663  141.5548  167.3831 C.ar    1  UNL1        0.0832
      7 C         141.8086  142.8617  165.2972 C.ar    1  UNL1        0.1743
      8 N         143.2914  142.6428  165.3549 N.ar    1  UNL1       -0.2243
      9 C         144.2218  143.6414  164.7328 C.ar    1  UNL1        0.1006
     10 C         143.6694  144.8590  164.0529 C.ar    1  UNL1        0.0217
     11 C         142.1866  145.0779  163.9952 C.ar    1  UNL1        0.0161
     12 C         141.2562  144.0793  164.6173 C.ar    1  UNL1        0.0934
     13 CL        139.7734  144.2983  164.5596 Cl      1  UNL1       -0.0790
     14 C         141.5651  142.1911  168.4817 C.ar    1  UNL1        0.0367
     15 C         142.9951  141.7928  168.6967 C.ar    1  UNL1        0.0046
     16 C         143.7940  142.4291  169.7953 C.ar    1  UNL1        0.0207
     17 C         143.1628  143.4638  170.6790 C.ar    1  UNL1        0.0989
     18 N         141.7327  143.8622  170.4639 N.ar    1  UNL1       -0.2423
     19 C         140.9338  143.2259  169.3653 C.ar    1  UNL1        0.1003
     20 C         138.1088  139.1435  165.9036 C.3     1  UNL1        0.1166
     21 N         138.4749  137.8171  165.3064 N.3     1  UNL1       -0.2935
     22 H         137.6037  137.3773  165.0095 H       1  UNL1        0.1236
     23 C         139.4122  137.7541  164.1371 C.3     1  UNL1        0.0543
     24 C         139.0652  138.0649  162.7112 C.3     1  UNL1        0.0157
     25 C         140.2997  137.8721  161.8811 C.3     1  UNL1        0.0014
     26 C         141.4096  137.4423  162.7940 C.3     1  UNL1        0.0014
     27 C         140.8611  137.3693  164.1882 C.3     1  UNL1        0.0157
@<TRIPOS>BOND
     1     1     2    1
     2     2     3   ar
     3     3    20    1
     4    20    21    1
     5    21    23    1
     6    23    24    1
     7    24    25    1
     8    25    26    1
     9    26    27    1
    10     3     4   ar
    11     4     5   ar
    12     5     7    1
    13     7     8   ar
    14     8     9   ar
    15     9    10   ar
    16    10    11   ar
    17    11    12   ar
    18    12    13    1
    19     5     6   ar
    20     6    14    1
    21    14    15   ar
    22    15    16   ar
    23    16    17   ar
    24    17    18   ar
    25    18    19   ar
    26     6     2   ar
    27    19    14   ar
    28    27    23    1
    29    12     7   ar
    30    21    22    1
@<TRIPOS>MOLECULE
*****
 27 30 0 0 0
SMALL
GASTEIGER

@<TRIPOS>ATOM
      1 C         138.6922  139.8781  166.9424 C.3     1  UNL1        0.0340
      2 C         139.6512  140.1276  165.8162 C.ar    1  UNL1        0.0125
      3 C         139.3329  140.0454  164.3526 C.ar    1  UNL1        0.0924
      4 N         140.5818  140.3700  163.5878 N.ar    1  UNL1       -0.1671
      5 N         141.6718  140.6529  164.5787 N.ar    1  UNL1       -0.2119
      6 C         141.0967  140.5031  165.9559 C.ar    1  UNL1        0.0832
      7 C         143.0884  141.0211  164.2500 C.ar    1  UNL1        0.1743
      8 N         143.4063  142.3934  163.7345 N.ar    1  UNL1       -0.2243
      9 C         144.8228  142.7615  163.4058 C.ar    1  UNL1        0.1006
     10 C         145.9213  141.7574  163.5925 C.ar    1  UNL1        0.0217
     11 C         145.6033  140.3851  164.1080 C.ar    1  UNL1        0.0161
     12 C         144.1869  140.0169  164.4367 C.ar    1  UNL1        0.0934
     13 CL        143.8689  138.6446  164.9522 Cl      1  UNL1       -0.0790
     14 C         141.8370  140.6951  167.2462 C.ar    1  UNL1        0.0367
     15 C         142.1834  142.0775  167.7138 C.ar    1  UNL1        0.0046
     16 C         142.9238  142.2695  169.0041 C.ar    1  UNL1        0.0207
     17 C         143.3177  141.0788  169.8270 C.ar    1  UNL1        0.0989
     18 N         142.9712  139.6963  169.3595 N.ar    1  UNL1       -0.2423
     19 C         142.2309  139.5043  168.0691 C.ar    1  UNL1        0.1003
     20 C         137.9999  139.6992  163.7583 C.3     1  UNL1        0.1166
     21 N         137.1281  140.7802  163.1913 N.3     1  UNL1       -0.2935
     22 H         136.2112  140.6774  163.6261 H       1  UNL1        0.1236
     23 C         137.5217  142.2193  163.3457 C.3     1  UNL1        0.0543
     24 C         137.9002  143.1540  162.2352 C.3     1  UNL1        0.0157
     25 C         138.2183  144.4888  162.8410 C.3     1  UNL1        0.0014
     26 C         138.0365  144.3792  164.3259 C.3     1  UNL1        0.0014
     27 C         137.6060  142.9766  164.6378 C.3     1  UNL1        0.0157
@<TRIPOS>BOND
     1     1     2    1
     2     2     3   ar
     3     3    20    1
     4    20    21    1
     5    21    23    1
     6    23    24    1
     7    24    25    1
     8    25    26    1
     9    26    27    1
    10     3     4   ar
    11     4     5   ar
    12     5     7    1
    13     7     8   ar
    14     8     9   ar
    15     9    10   ar
    16    10    11   ar
    17    11    12   ar
    18    12    13    1
    19     5     6   ar
    20     6    14    1
    21    14    15   ar
    22    15    16   ar
    23    16    17   ar
    24    17    18   ar
    25    18    19   ar
    26     6     2   ar
    27    19    14   ar
    28    27    23    1
    29    12     7   ar
    30    21    22    1
@<TRIPOS>MOLECULE
*****
 27 30 0 0 0
SMALL
GASTEIGER

@<TRIPOS>ATOM
      1 C         140.8686  140.6456  162.1062 C.3     1  UNL1        0.0340
      2 C         141.1147  140.2160  163.5221 C.ar    1  UNL1        0.0125
      3 C         141.9721  139.0648  163.9578 C.ar    1  UNL1        0.0924
      4 N         141.9339  138.9995  165.4559 N.ar    1  UNL1       -0.1671
      5 N         141.0530  140.1103  165.9461 N.ar    1  UNL1       -0.2119
      6 C         140.5467  140.8621  164.7509 C.ar    1  UNL1        0.0832
      7 C         140.7344  140.4156  167.3797 C.ar    1  UNL1        0.1743
      8 N         141.7092  141.1902  168.2161 N.ar    1  UNL1       -0.2243
      9 C         141.3907  141.4956  169.6497 C.ar    1  UNL1        0.1006
     10 C         140.0972  141.0263  170.2469 C.ar    1  UNL1        0.0217
     11 C         139.1223  140.2517  169.4105 C.ar    1  UNL1        0.0161
     12 C         139.4409  139.9463  167.9769 C.ar    1  UNL1        0.0934
     13 CL        138.4660  139.1717  167.1405 Cl      1  UNL1       -0.0790
     14 C         139.6329  142.0512  164.7795 C.ar    1  UNL1        0.0367
     15 C         140.1637  143.3958  165.1798 C.ar    1  UNL1        0.0046
     16 C         139.2499  144.5849  165.2084 C.ar    1  UNL1        0.0207
     17 C         137.8051  144.4295  164.8366 C.ar    1  UNL1        0.0989
     18 N         137.2741  143.0849  164.4362 N.ar    1  UNL1       -0.2423
     19 C         138.1880  141.8958  164.4076 C.ar    1  UNL1        0.1003
     20 C         142.7338  138.1412  163.0541 C.3     1  UNL1        0.1166
     21 N         144.0723  138.5530  162.5166 N.3     1  UNL1       -0.2935
     22 H         144.0236  138.4594  161.5021 H       1  UNL1        0.1236
     23 C         144.6037  139.9268  162.7997 C.3     1  UNL1        0.0543
     24 C         144.5355  141.1064  161.8755 C.3     1  UNL1        0.0157
     25 C         145.1864  142.2708  162.5613 C.3     1  UNL1        0.0014
     26 C         145.6569  141.8110  163.9094 C.3     1  UNL1        0.0014
     27 C         145.2968  140.3624  164.0567 C.3     1  UNL1        0.0157
@<TRIPOS>BOND
     1     1     2    1
     2     2     3   ar
     3     3    20    1
     4    20    21    1
     5    21    23    1
     6    23    24    1
     7    24    25    1
     8    25    26    1
     9    26    27    1
    10     3     4   ar
    11     4     5   ar
    12     5     7    1
    13     7     8   ar
    14     8     9   ar
    15     9    10   ar
    16    10    11   ar
    17    11    12   ar
    18    12    13    1
    19     5     6   ar
    20     6    14    1
    21    14    15   ar
    22    15    16   ar
    23    16    17   ar
    24    17    18   ar
    25    18    19   ar
    26     6     2   ar
    27    19    14   ar
    28    27    23    1
    29    12     7   ar
    30    21    22    1
@<TRIPOS>MOLECULE
*****
 27 30 0 0 0
SMALL
GASTEIGER

@<TRIPOS>ATOM
      1 C         137.5863  138.6128  166.8713 C.3     1  UNL1        0.0340
      2 C         138.9337  139.2696  166.9273 C.ar    1  UNL1        0.0125
      3 C         139.5648  139.8850  168.1411 C.ar    1  UNL1        0.0924
      4 N         140.9077  140.4221  167.7433 N.ar    1  UNL1       -0.1671
      5 N         141.1066  140.1386  166.2838 N.ar    1  UNL1       -0.2119
      6 C         139.8866  139.4264  165.7795 C.ar    1  UNL1        0.0832
      7 C         142.3136  140.5034  165.4713 C.ar    1  UNL1        0.1743
      8 N         142.3827  141.8370  164.7882 N.ar    1  UNL1       -0.2243
      9 C         143.5897  142.2018  163.9757 C.ar    1  UNL1        0.1006
     10 C         144.7274  141.2330  163.8463 C.ar    1  UNL1        0.0217
     11 C         144.6582  139.8993  164.5294 C.ar    1  UNL1        0.0161
     12 C         143.4513  139.5345  165.3419 C.ar    1  UNL1        0.0934
     13 CL        143.3821  138.2009  166.0250 Cl      1  UNL1       -0.0790
     14 C         139.6593  138.9538  164.3742 C.ar    1  UNL1        0.0367
     15 C         138.6263  139.6219  163.5160 C.ar    1  UNL1        0.0046
     16 C         138.3990  139.1493  162.1107 C.ar    1  UNL1        0.0207
     17 C         139.2048  138.0086  161.5634 C.ar    1  UNL1        0.0989
     18 N         140.2379  137.3405  162.4216 N.ar    1  UNL1       -0.2423
     19 C         140.4652  137.8131  163.8270 C.ar    1  UNL1        0.1003
     20 C         138.9593  139.9516  169.5118 C.3     1  UNL1        0.1166
     21 N         138.9727  141.2425  170.2757 N.3     1  UNL1       -0.2935
     22 H         138.6696  141.0259  171.2252 H       1  UNL1        0.1236
     23 C         140.2438  142.0297  170.3958 C.3     1  UNL1        0.0543
     24 C         141.5053  141.5707  171.0654 C.3     1  UNL1        0.0157
     25 C         142.5178  142.6715  170.9509 C.3     1  UNL1        0.0014
     26 C         141.8822  143.8107  170.2105 C.3     1  UNL1        0.0014
     27 C         140.4769  143.4141  169.8675 C.3     1  UNL1        0.0157
@<TRIPOS>BOND
     1     1     2    1
     2     2     3   ar
     3     3    20    1
     4    20    21    1
     5    21    23    1
     6    23    24    1
     7    24    25    1
     8    25    26    1
     9    26    27    1
    10     3     4   ar
    11     4     5   ar
    12     5     7    1
    13     7     8   ar
    14     8     9   ar
    15     9    10   ar
    16    10    11   ar
    17    11    12   ar
    18    12    13    1
    19     5     6   ar
    20     6    14    1
    21    14    15   ar
    22    15    16   ar
    23    16    17   ar
    24    17    18   ar
    25    18    19   ar
    26     6     2   ar
    27    19    14   ar
    28    27    23    1
    29    12     7   ar
    30    21    22    1
@<TRIPOS>MOLECULE
*****
 27 30 0 0 0
SMALL
GASTEIGER

@<TRIPOS>ATOM
      1 C         142.6099  143.7877  163.0241 C.3     1  UNL1        0.0340
      2 C         142.6230  143.1985  164.4035 C.ar    1  UNL1        0.0125
      3 C         143.8432  142.8081  165.1839 C.ar    1  UNL1        0.0924
      4 N         143.3926  142.2646  166.5074 N.ar    1  UNL1       -0.1671
      5 N         141.8940  142.3191  166.5449 N.ar    1  UNL1       -0.2119
      6 C         141.4184  142.8963  165.2447 C.ar    1  UNL1        0.0832
      7 C         141.0238  141.8745  167.6830 C.ar    1  UNL1        0.1743
      8 N         140.8559  142.7537  168.8867 N.ar    1  UNL1       -0.2243
      9 C         139.9858  142.3091  170.0247 C.ar    1  UNL1        0.1006
     10 C         139.2836  140.9853  169.9591 C.ar    1  UNL1        0.0217
     11 C         139.4515  140.1061  168.7555 C.ar    1  UNL1        0.0161
     12 C         140.3216  140.5507  167.6174 C.ar    1  UNL1        0.0934
     13 CL        140.4895  139.6714  166.4138 Cl      1  UNL1       -0.0790
     14 C         139.9892  143.1303  164.8542 C.ar    1  UNL1        0.0367
     15 C         139.2460  144.3126  165.4015 C.ar    1  UNL1        0.0046
     16 C         137.8167  144.5465  165.0109 C.ar    1  UNL1        0.0207
     17 C         137.1307  143.5981  164.0730 C.ar    1  UNL1        0.0989
     18 N         137.8739  142.4157  163.5257 N.ar    1  UNL1       -0.2423
     19 C         139.3031  142.1817  163.9162 C.ar    1  UNL1        0.1003
     20 C         145.2643  142.9383  164.7219 C.3     1  UNL1        0.1166
     21 N         145.9105  141.8197  163.9596 N.3     1  UNL1       -0.2935
     22 H         146.5545  141.3587  164.6025 H       1  UNL1        0.1236
     23 C         145.0649  140.7426  163.3474 C.3     1  UNL1        0.0543
     24 C         144.5816  139.5017  164.0378 C.3     1  UNL1        0.0157
     25 C         143.7721  138.7095  163.0544 C.3     1  UNL1        0.0014
     26 C         143.7550  139.4608  161.7563 C.3     1  UNL1        0.0014
     27 C         144.5540  140.7173  161.9374 C.3     1  UNL1        0.0157
@<TRIPOS>BOND
     1     1     2    1
     2     2     3   ar
     3     3    20    1
     4    20    21    1
     5    21    23    1
     6    23    24    1
     7    24    25    1
     8    25    26    1
     9    26    27    1
    10     3     4   ar
    11     4     5   ar
    12     5     7    1
    13     7     8   ar
    14     8     9   ar
    15     9    10   ar
    16    10    11   ar
    17    11    12   ar
    18    12    13    1
    19     5     6   ar
    20     6    14    1
    21    14    15   ar
    22    15    16   ar
    23    16    17   ar
    24    17    18   ar
    25    18    19   ar
    26     6     2   ar
    27    19    14   ar
    28    27    23    1
    29    12     7   ar
    30    21    22    1
@<TRIPOS>MOLECULE
*****
 27 30 0 0 0
SMALL
GASTEIGER

@<TRIPOS>ATOM
      1 C         140.6637  140.5992  162.1213 C.3     1  UNL1        0.0340
      2 C         140.4122  140.4751  163.5949 C.ar    1  UNL1        0.0125
      3 C         139.0901  140.1871  164.2424 C.ar    1  UNL1        0.0924
      4 N         139.2994  140.1512  165.7273 N.ar    1  UNL1       -0.1671
      5 N         140.7508  140.4170  165.9974 N.ar    1  UNL1       -0.2119
      6 C         141.4385  140.6171  164.6795 C.ar    1  UNL1        0.0832
      7 C         141.4004  140.4728  167.3484 C.ar    1  UNL1        0.1743
      8 N         142.1584  139.2862  167.8656 N.ar    1  UNL1       -0.2243
      9 C         142.8080  139.3420  169.2165 C.ar    1  UNL1        0.1006
     10 C         142.6995  140.5842  170.0501 C.ar    1  UNL1        0.0217
     11 C         141.9415  141.7708  169.5329 C.ar    1  UNL1        0.0161
     12 C         141.2919  141.7150  168.1820 C.ar    1  UNL1        0.0934
     13 CL        140.5339  142.9015  167.6648 Cl      1  UNL1       -0.0790
     14 C         142.8965  140.9082  164.4810 C.ar    1  UNL1        0.0367
     15 C         143.3988  142.3187  164.5708 C.ar    1  UNL1        0.0046
     16 C         144.8568  142.6098  164.3723 C.ar    1  UNL1        0.0207
     17 C         145.8126  141.4903  164.0840 C.ar    1  UNL1        0.0989
     18 N         145.3104  140.0797  163.9943 N.ar    1  UNL1       -0.2423
     19 C         143.8523  139.7886  164.1928 C.ar    1  UNL1        0.1003
     20 C         137.7875  139.9728  163.5302 C.3     1  UNL1        0.1166
     21 N         136.9690  141.1513  163.0930 N.3     1  UNL1       -0.2935
     22 H         136.0918  141.1093  163.6119 H       1  UNL1        0.1236
     23 C         137.5060  142.5416  163.2622 C.3     1  UNL1        0.0543
     24 C         137.6395  143.2835  164.5590 C.3     1  UNL1        0.0157
     25 C         138.2198  144.6345  164.2625 C.3     1  UNL1        0.0014
     26 C         138.4451  144.7276  162.7825 C.3     1  UNL1        0.0014
     27 C         138.0039  143.4341  162.1642 C.3     1  UNL1        0.0157
@<TRIPOS>BOND
     1     1     2    1
     2     2     3   ar
     3     3    20    1
     4    20    21    1
     5    21    23    1
     6    23    24    1
     7    24    25    1
     8    25    26    1
     9    26    27    1
    10     3     4   ar
    11     4     5   ar
    12     5     7    1
    13     7     8   ar
    14     8     9   ar
    15     9    10   ar
    16    10    11   ar
    17    11    12   ar
    18    12    13    1
    19     5     6   ar
    20     6    14    1
    21    14    15   ar
    22    15    16   ar
    23    16    17   ar
    24    17    18   ar
    25    18    19   ar
    26     6     2   ar
    27    19    14   ar
    28    27    23    1
    29    12     7   ar
    30    21    22    1
@<TRIPOS>MOLECULE
*****
 27 30 0 0 0
SMALL
GASTEIGER

@<TRIPOS>ATOM
      1 C         139.0528  139.4960  167.5419 C.3     1  UNL1        0.0340
      2 C         139.6237  140.2337  166.3672 C.ar    1  UNL1        0.0125
      3 C         139.3304  139.9537  164.9229 C.ar    1  UNL1        0.0924
      4 N         140.1136  140.9278  164.0937 N.ar    1  UNL1       -0.1671
      5 N         140.8909  141.8098  165.0253 N.ar    1  UNL1       -0.2119
      6 C         140.5881  141.3808  166.4304 C.ar    1  UNL1        0.0832
      7 C         141.8096  142.9251  164.6226 C.ar    1  UNL1        0.1743
      8 N         141.2480  144.2738  164.2829 N.ar    1  UNL1       -0.2243
      9 C         142.1667  145.3891  163.8801 C.ar    1  UNL1        0.1006
     10 C         143.6470  145.1555  163.8171 C.ar    1  UNL1        0.0217
     11 C         144.2086  143.8068  164.1568 C.ar    1  UNL1        0.0161
     12 C         143.2900  142.6915  164.5595 C.ar    1  UNL1        0.0934
     13 CL        143.8516  141.3428  164.8992 Cl      1  UNL1       -0.0790
     14 C         141.1508  141.9916  167.6795 C.ar    1  UNL1        0.0367
     15 C         140.3299  142.9624  168.4753 C.ar    1  UNL1        0.0046
     16 C         140.8927  143.5733  169.7244 C.ar    1  UNL1        0.0207
     17 C         142.2765  143.2133  170.1776 C.ar    1  UNL1        0.0989
     18 N         143.0975  142.2424  169.3817 N.ar    1  UNL1       -0.2423
     19 C         142.5347  141.6316  168.1327 C.ar    1  UNL1        0.1003
     20 C         138.4148  138.8869  164.3999 C.3     1  UNL1        0.1166
     21 N         138.9842  137.6761  163.7219 N.3     1  UNL1       -0.2935
     22 H         138.1978  137.1685  163.3164 H       1  UNL1        0.1236
     23 C         140.0039  137.8360  162.6334 C.3     1  UNL1        0.0543
     24 C         139.7329  138.2986  161.2325 C.3     1  UNL1        0.0157
     25 C         141.0351  138.3099  160.4880 C.3     1  UNL1        0.0014
     26 C         142.1108  137.8543  161.4289 C.3     1  UNL1        0.0014
     27 C         141.4735  137.5614  162.7548 C.3     1  UNL1        0.0157
@<TRIPOS>BOND
     1     1     2    1
     2     2     3   ar
     3     3    20    1
     4    20    21    1
     5    21    23    1
     6    23    24    1
     7    24    25    1
     8    25    26    1
     9    26    27    1
    10     3     4   ar
    11     4     5   ar
    12     5     7    1
    13     7     8   ar
    14     8     9   ar
    15     9    10   ar
    16    10    11   ar
    17    11    12   ar
    18    12    13    1
    19     5     6   ar
    20     6    14    1
    21    14    15   ar
    22    15    16   ar
    23    16    17   ar
    24    17    18   ar
    25    18    19   ar
    26     6     2   ar
    27    19    14   ar
    28    27    23    1
    29    12     7   ar
    30    21    22    1
@<TRIPOS>MOLECULE
*****
 27 30 0 0 0
SMALL
GASTEIGER

@<TRIPOS>ATOM
      1 C         143.1294  138.8964  167.0158 C.3     1  UNL1        0.0340
      2 C         142.4254  139.7077  165.9688 C.ar    1  UNL1        0.0125
      3 C         142.6789  139.6514  164.4914 C.ar    1  UNL1        0.0924
      4 N         141.7545  140.6267  163.8250 N.ar    1  UNL1       -0.1671
      5 N         140.9296  141.2858  164.8905 N.ar    1  UNL1       -0.2119
      6 C         141.3443  140.7179  166.2154 C.ar    1  UNL1        0.0832
      7 C         139.8752  142.3297  164.6697 C.ar    1  UNL1        0.1743
      8 N         140.2626  143.7741  164.5536 N.ar    1  UNL1       -0.2243
      9 C         139.2083  144.8180  164.3328 C.ar    1  UNL1        0.1006
     10 C         137.7666  144.4173  164.2282 C.ar    1  UNL1        0.0217
     11 C         137.3792  142.9729  164.3444 C.ar    1  UNL1        0.0161
     12 C         138.4335  141.9291  164.5651 C.ar    1  UNL1        0.0934
     13 CL        138.0462  140.4846  164.6813 Cl      1  UNL1       -0.0790
     14 C         140.7774  141.0940  167.5523 C.ar    1  UNL1        0.0367
     15 C         141.1486  142.4033  168.1829 C.ar    1  UNL1        0.0046
     16 C         140.5817  142.7794  169.5197 C.ar    1  UNL1        0.0207
     17 C         139.6435  141.8461  170.2260 C.ar    1  UNL1        0.0989
     18 N         139.2723  140.5367  169.5953 N.ar    1  UNL1       -0.2423
     19 C         139.8392  140.1606  168.2585 C.ar    1  UNL1        0.1003
     20 C         143.6809  138.7738  163.8016 C.3     1  UNL1        0.1166
     21 N         144.8514  139.3866  163.0914 N.3     1  UNL1       -0.2935
     22 H         145.1088  138.7457  162.3408 H       1  UNL1        0.1236
     23 C         144.7252  140.7479  162.4741 C.3     1  UNL1        0.0543
     24 C         145.1157  142.0465  163.1155 C.3     1  UNL1        0.0157
     25 C         144.8182  143.1508  162.1449 C.3     1  UNL1        0.0014
     26 C         144.2439  142.5347  160.9037 C.3     1  UNL1        0.0014
     27 C         144.1864  141.0497  161.1072 C.3     1  UNL1        0.0157
@<TRIPOS>BOND
     1     1     2    1
     2     2     3   ar
     3     3    20    1
     4    20    21    1
     5    21    23    1
     6    23    24    1
     7    24    25    1
     8    25    26    1
     9    26    27    1
    10     3     4   ar
    11     4     5   ar
    12     5     7    1
    13     7     8   ar
    14     8     9   ar
    15     9    10   ar
    16    10    11   ar
    17    11    12   ar
    18    12    13    1
    19     5     6   ar
    20     6    14    1
    21    14    15   ar
    22    15    16   ar
    23    16    17   ar
    24    17    18   ar
    25    18    19   ar
    26     6     2   ar
    27    19    14   ar
    28    27    23    1
    29    12     7   ar
    30    21    22    1
