@<TRIPOS>MOLECULE
*****
 33 36 0 0 0
SMALL
GASTEIGER

@<TRIPOS>ATOM
      1 N         138.2113  139.7518  163.4477 N.3     1  UNL1       -0.2698
      2 N         139.6401  140.3920  167.6666 N.pl3   1  UNL1       -0.2769
      3 C         140.2327  141.1918  166.5446 C.3     1  UNL1        0.0950
      4 C         139.7565  140.9785  165.1383 C.3     1  UNL1        0.0375
      5 C         138.6876  139.9652  164.8541 C.3     1  UNL1        0.0612
      6 C         138.0950  139.1653  165.9761 C.3     1  UNL1        0.0375
      7 C         138.5712  139.3787  167.3823 C.3     1  UNL1        0.0950
      8 N         142.1809  142.3350  171.8678 N.pl3   1  UNL1       -0.3278
      9 C         141.2843  141.4985  171.0040 C.ar    1  UNL1        0.2099
     10 N         141.1001  141.6446  169.5225 N.ar    1  UNL1       -0.1804
     11 C         140.1163  140.6053  169.0729 C.ar    1  UNL1        0.2395
     12 N         139.6924  139.8169  170.2765 N.ar    1  UNL1       -0.1349
     13 N         140.4142  140.3689  171.4700 N.ar    1  UNL1       -0.2453
     14 H         142.7161  143.0577  171.4671 H       1  UNL1        0.1451
     15 H         142.2342  142.1614  172.8354 H       1  UNL1        0.1451
     16 H         140.3315  140.0464  172.3965 H       1  UNL1        0.1919
     17 C         138.4990  138.4573  162.7468 C.3     1  UNL1        0.0770
     18 C         139.5555  137.5349  163.2788 C.3     1  UNL1        0.0437
     19 C         140.9447  138.0461  163.5209 C.ar    1  UNL1       -0.0207
     20 C         141.6046  137.8241  164.8496 C.ar    1  UNL1       -0.0034
     21 C         142.9938  138.3353  165.0917 C.ar    1  UNL1        0.0111
     22 C         143.7232  139.0686  164.0052 C.ar    1  UNL1        0.0577
     23 CL        145.1124  139.5798  164.2473 Cl      1  UNL1       -0.0822
     24 C         143.0633  139.2905  162.6766 C.ar    1  UNL1        0.0111
     25 C         141.6740  138.7793  162.4344 C.ar    1  UNL1       -0.0034
     26 C         137.4475  140.8331  162.7424 C.3     1  UNL1        0.0991
     27 C         138.0850  142.1702  162.5067 C.ar    1  UNL1       -0.0061
     28 C         137.6400  143.3635  163.2992 C.ar    1  UNL1       -0.0021
     29 C         138.2776  144.7006  163.0635 C.ar    1  UNL1        0.0111
     30 C         139.3601  144.8445  162.0352 C.ar    1  UNL1        0.0577
     31 CL        139.9977  146.1816  161.7995 Cl      1  UNL1       -0.0822
     32 C         139.8052  143.6513  161.2427 C.ar    1  UNL1        0.0111
     33 C         139.1676  142.3141  161.4784 C.ar    1  UNL1       -0.0021
@<TRIPOS>BOND
     1     8     9    1
     2     9    10   ar
     3    10    11   ar
     4    11     2    1
     5     2     3    1
     6     3     4    1
     7     4     5    1
     8     5     1    1
     9     1    17    1
    10    17    18    1
    11    18    19    1
    12    19    20   ar
    13    20    21   ar
    14    21    22   ar
    15    22    23    1
    16    22    24   ar
    17    24    25   ar
    18     1    26    1
    19    26    27    1
    20    27    28   ar
    21    28    29   ar
    22    29    30   ar
    23    30    31    1
    24    30    32   ar
    25    32    33   ar
    26     5     6    1
    27     6     7    1
    28    11    12   ar
    29    12    13   ar
    30    13     9   ar
    31     7     2    1
    32    25    19   ar
    33    33    27   ar
    34     8    14    1
    35     8    15    1
    36    13    16    1
@<TRIPOS>MOLECULE
*****
 33 36 0 0 0
SMALL
GASTEIGER

@<TRIPOS>ATOM
      1 N         138.0939  140.8265  162.2419 N.3     1  UNL1       -0.2698
      2 N         140.0281  143.7805  159.4522 N.pl3   1  UNL1       -0.2769
      3 C         139.0520  142.7739  158.9193 C.3     1  UNL1        0.0950
      4 C         138.4073  141.7893  159.8492 C.3     1  UNL1        0.0375
      5 C         138.7387  141.8112  161.3120 C.3     1  UNL1        0.0612
      6 C         139.7148  142.8178  161.8448 C.3     1  UNL1        0.0375
      7 C         140.3595  143.8024  160.9149 C.3     1  UNL1        0.0950
      8 N         140.8264  147.1177  155.4388 N.pl3   1  UNL1       -0.3278
      9 C         141.0398  146.2991  156.6775 C.ar    1  UNL1        0.2099
     10 N         140.0402  145.3742  157.3062 N.ar    1  UNL1       -0.1804
     11 C         140.6729  144.7652  158.5222 C.ar    1  UNL1        0.2395
     12 N         142.0636  145.3137  158.6451 N.ar    1  UNL1       -0.1349
     13 N         142.2904  146.2617  157.5050 N.ar    1  UNL1       -0.2453
     14 H         139.9659  147.0745  154.9624 H       1  UNL1        0.1451
     15 H         141.5468  147.6981  155.1021 H       1  UNL1        0.1451
     16 H         143.1152  146.7702  157.3305 H       1  UNL1        0.1919
     17 C         137.9471  139.3916  161.8305 C.3     1  UNL1        0.0770
     18 C         139.1646  138.5320  161.6596 C.3     1  UNL1        0.0437
     19 C         140.1913  138.4605  162.7508 C.ar    1  UNL1       -0.0207
     20 C         140.2119  137.2875  163.6855 C.ar    1  UNL1       -0.0034
     21 C         141.2386  137.2159  164.7766 C.ar    1  UNL1        0.0111
     22 C         142.2448  138.3173  164.9331 C.ar    1  UNL1        0.0577
     23 CL        143.2715  138.2457  166.0243 Cl      1  UNL1       -0.0822
     24 C         142.2242  139.4903  163.9984 C.ar    1  UNL1        0.0111
     25 C         141.1975  139.5619  162.9072 C.ar    1  UNL1       -0.0034
     26 C         137.5958  141.2769  163.5832 C.3     1  UNL1        0.0991
     27 C         138.3694  140.9382  164.8229 C.ar    1  UNL1       -0.0061
     28 C         138.0899  139.6594  165.5555 C.ar    1  UNL1       -0.0021
     29 C         138.8635  139.3208  166.7952 C.ar    1  UNL1        0.0111
     30 C         139.9166  140.2608  167.3023 C.ar    1  UNL1        0.0577
     31 CL        140.6902  139.9222  168.5420 Cl      1  UNL1       -0.0822
     32 C         140.1962  141.5395  166.5697 C.ar    1  UNL1        0.0111
     33 C         139.4226  141.8783  165.3300 C.ar    1  UNL1       -0.0021
@<TRIPOS>BOND
     1     8     9    1
     2     9    10   ar
     3    10    11   ar
     4    11     2    1
     5     2     3    1
     6     3     4    1
     7     4     5    1
     8     5     1    1
     9     1    17    1
    10    17    18    1
    11    18    19    1
    12    19    20   ar
    13    20    21   ar
    14    21    22   ar
    15    22    23    1
    16    22    24   ar
    17    24    25   ar
    18     1    26    1
    19    26    27    1
    20    27    28   ar
    21    28    29   ar
    22    29    30   ar
    23    30    31    1
    24    30    32   ar
    25    32    33   ar
    26     5     6    1
    27     6     7    1
    28    11    12   ar
    29    12    13   ar
    30    13     9   ar
    31     7     2    1
    32    25    19   ar
    33    33    27   ar
    34     8    14    1
    35     8    15    1
    36    13    16    1
@<TRIPOS>MOLECULE
*****
 33 36 0 0 0
SMALL
GASTEIGER

@<TRIPOS>ATOM
      1 N         139.0834  143.4773  164.1870 N.3     1  UNL1       -0.2698
      2 N         140.4346  144.9575  160.1580 N.pl3   1  UNL1       -0.2769
      3 C         140.5144  143.4959  160.4854 C.3     1  UNL1        0.0950
      4 C         140.0641  143.0025  161.8284 C.3     1  UNL1        0.0375
      5 C         139.5338  143.9707  162.8440 C.3     1  UNL1        0.0612
      6 C         139.4539  145.4323  162.5165 C.3     1  UNL1        0.0375
      7 C         139.9043  145.9257  161.1735 C.3     1  UNL1        0.0950
      8 N         140.3965  146.5980  155.1392 N.pl3   1  UNL1       -0.3278
      9 C         140.8674  146.2050  156.5080 C.ar    1  UNL1        0.2099
     10 N         140.0000  145.7325  157.6369 N.ar    1  UNL1       -0.1804
     11 C         140.8849  145.4509  158.8149 C.ar    1  UNL1        0.2395
     12 N         142.2992  145.7495  158.4141 N.ar    1  UNL1       -0.1349
     13 N         142.2884  146.2155  156.9884 N.ar    1  UNL1       -0.2453
     14 H         139.4381  146.5573  154.9178 H       1  UNL1        0.1451
     15 H         141.0459  146.8967  154.4621 H       1  UNL1        0.1451
     16 H         143.0757  146.4815  156.4606 H       1  UNL1        0.1919
     17 C         137.7203  142.8716  164.3450 C.3     1  UNL1        0.0770
     18 C         137.4063  141.5530  163.7025 C.3     1  UNL1        0.0437
     19 C         138.2953  140.3697  163.9457 C.ar    1  UNL1       -0.0207
     20 C         138.2958  139.6946  165.2852 C.ar    1  UNL1       -0.0034
     21 C         139.1848  138.5112  165.5283 C.ar    1  UNL1        0.0111
     22 C         140.0735  138.0028  164.4320 C.ar    1  UNL1        0.0577
     23 CL        140.9625  136.8194  164.6751 Cl      1  UNL1       -0.0822
     24 C         140.0730  138.6779  163.0925 C.ar    1  UNL1        0.0111
     25 C         139.1839  139.8613  162.8493 C.ar    1  UNL1       -0.0034
     26 C         139.9962  143.5895  165.3720 C.3     1  UNL1        0.0991
     27 C         140.7773  142.3947  165.8328 C.ar    1  UNL1       -0.0061
     28 C         140.5905  141.8678  167.2248 C.ar    1  UNL1       -0.0021
     29 C         141.3716  140.6731  167.6856 C.ar    1  UNL1        0.0111
     30 C         142.3396  140.0052  166.7545 C.ar    1  UNL1        0.0577
     31 CL        143.1207  138.8104  167.2154 Cl      1  UNL1       -0.0822
     32 C         142.5265  140.5321  165.3626 C.ar    1  UNL1        0.0111
     33 C         141.7454  141.7269  164.9017 C.ar    1  UNL1       -0.0021
@<TRIPOS>BOND
     1     8     9    1
     2     9    10   ar
     3    10    11   ar
     4    11     2    1
     5     2     3    1
     6     3     4    1
     7     4     5    1
     8     5     1    1
     9     1    17    1
    10    17    18    1
    11    18    19    1
    12    19    20   ar
    13    20    21   ar
    14    21    22   ar
    15    22    23    1
    16    22    24   ar
    17    24    25   ar
    18     1    26    1
    19    26    27    1
    20    27    28   ar
    21    28    29   ar
    22    29    30   ar
    23    30    31    1
    24    30    32   ar
    25    32    33   ar
    26     5     6    1
    27     6     7    1
    28    11    12   ar
    29    12    13   ar
    30    13     9   ar
    31     7     2    1
    32    25    19   ar
    33    33    27   ar
    34     8    14    1
    35     8    15    1
    36    13    16    1
@<TRIPOS>MOLECULE
*****
 33 36 0 0 0
SMALL
GASTEIGER

@<TRIPOS>ATOM
      1 N         137.9398  140.5413  163.2568 N.3     1  UNL1       -0.2698
      2 N         139.4807  140.2918  167.4773 N.pl3   1  UNL1       -0.2769
      3 C         138.5867  139.2136  166.9404 C.3     1  UNL1        0.0950
      4 C         138.0731  139.2968  165.5335 C.3     1  UNL1        0.0375
      5 C         138.4535  140.4581  164.6637 C.3     1  UNL1        0.0612
      6 C         139.3474  141.5363  165.2006 C.3     1  UNL1        0.0375
      7 C         139.8611  141.4531  166.6075 C.3     1  UNL1        0.0950
      8 N         142.6996  140.3867  171.6620 N.pl3   1  UNL1       -0.3278
      9 C         141.4740  140.2523  170.8077 C.ar    1  UNL1        0.2099
     10 N         141.4112  140.4373  169.3205 N.ar    1  UNL1       -0.1804
     11 C         139.9944  140.2086  168.8842 C.ar    1  UNL1        0.2395
     12 N         139.1815  139.8822  170.1018 N.ar    1  UNL1       -0.1349
     13 N         140.0958  139.9091  171.2906 N.ar    1  UNL1       -0.2453
     14 H         143.5638  140.6163  171.2502 H       1  UNL1        0.1451
     15 H         142.6397  140.2452  172.6344 H       1  UNL1        0.1451
     16 H         139.8370  139.7326  172.2239 H       1  UNL1        0.1919
     17 C         137.4001  141.8382  162.7308 C.3     1  UNL1        0.0770
     18 C         138.1653  142.6025  161.6913 C.3     1  UNL1        0.0437
     19 C         139.5338  143.1307  162.0047 C.ar    1  UNL1       -0.0207
     20 C         140.7498  142.3950  161.5249 C.ar    1  UNL1       -0.0034
     21 C         142.1182  142.9232  161.8383 C.ar    1  UNL1        0.0111
     22 C         142.2708  144.1871  162.6317 C.ar    1  UNL1        0.0577
     23 CL        143.6392  144.7153  162.9451 Cl      1  UNL1       -0.0822
     24 C         141.0548  144.9228  163.1115 C.ar    1  UNL1        0.0111
     25 C         139.6863  144.3945  162.7981 C.ar    1  UNL1       -0.0034
     26 C         137.9657  139.3274  162.3759 C.3     1  UNL1        0.0991
     27 C         139.1874  139.0168  161.5629 C.ar    1  UNL1       -0.0061
     28 C         139.1568  139.1776  160.0718 C.ar    1  UNL1       -0.0021
     29 C         140.3784  138.8669  159.2587 C.ar    1  UNL1        0.0111
     30 C         141.6307  138.3954  159.9367 C.ar    1  UNL1        0.0577
     31 CL        142.8523  138.0848  159.1237 Cl      1  UNL1       -0.0822
     32 C         141.6613  138.2346  161.4277 C.ar    1  UNL1        0.0111
     33 C         140.4396  138.5453  162.2408 C.ar    1  UNL1       -0.0021
@<TRIPOS>BOND
     1     8     9    1
     2     9    10   ar
     3    10    11   ar
     4    11     2    1
     5     2     3    1
     6     3     4    1
     7     4     5    1
     8     5     1    1
     9     1    17    1
    10    17    18    1
    11    18    19    1
    12    19    20   ar
    13    20    21   ar
    14    21    22   ar
    15    22    23    1
    16    22    24   ar
    17    24    25   ar
    18     1    26    1
    19    26    27    1
    20    27    28   ar
    21    28    29   ar
    22    29    30   ar
    23    30    31    1
    24    30    32   ar
    25    32    33   ar
    26     5     6    1
    27     6     7    1
    28    11    12   ar
    29    12    13   ar
    30    13     9   ar
    31     7     2    1
    32    25    19   ar
    33    33    27   ar
    34     8    14    1
    35     8    15    1
    36    13    16    1
@<TRIPOS>MOLECULE
*****
 33 36 0 0 0
SMALL
GASTEIGER

@<TRIPOS>ATOM
      1 N         140.3186  144.4452  164.0113 N.3     1  UNL1       -0.2698
      2 N         141.8906  141.9270  167.3932 N.pl3   1  UNL1       -0.2769
      3 C         142.7563  142.2056  166.2004 C.3     1  UNL1        0.0950
      4 C         142.2323  143.0450  165.0731 C.3     1  UNL1        0.0375
      5 C         140.8426  143.6057  165.1387 C.3     1  UNL1        0.0612
      6 C         139.9769  143.3271  166.3315 C.3     1  UNL1        0.0375
      7 C         140.5009  142.4877  167.4587 C.3     1  UNL1        0.0950
      8 N         143.0321  137.7812  170.4577 N.pl3   1  UNL1       -0.3278
      9 C         142.9392  139.1819  169.9291 C.ar    1  UNL1        0.2099
     10 N         142.2669  139.6009  168.6554 N.ar    1  UNL1       -0.1804
     11 C         142.4145  141.0875  168.5206 C.ar    1  UNL1        0.2395
     12 N         143.1781  141.5873  169.7110 N.ar    1  UNL1       -0.1349
     13 N         143.5024  140.4097  170.5815 N.ar    1  UNL1       -0.2453
     14 H         142.6286  137.0374  169.9545 H       1  UNL1        0.1451
     15 H         143.4966  137.6056  171.3077 H       1  UNL1        0.1451
     16 H         143.9979  140.4376  171.4318 H       1  UNL1        0.1919
     17 C         138.8774  144.8604  163.9924 C.3     1  UNL1        0.0770
     18 C         137.9406  144.2720  162.9792 C.3     1  UNL1        0.0437
     19 C         137.9352  142.7924  162.7330 C.ar    1  UNL1       -0.0207
     20 C         138.0480  142.2646  161.3334 C.ar    1  UNL1       -0.0034
     21 C         138.0427  140.7850  161.0871 C.ar    1  UNL1        0.0111
     22 C         137.9246  139.8331  162.2404 C.ar    1  UNL1        0.0577
     23 CL        137.9192  138.3535  161.9941 Cl      1  UNL1       -0.0822
     24 C         137.8118  140.3609  163.6400 C.ar    1  UNL1        0.0111
     25 C         137.8171  141.8406  163.8862 C.ar    1  UNL1       -0.0034
     26 C         141.2359  144.8694  162.9029 C.3     1  UNL1        0.0991
     27 C         141.1416  144.2116  161.5581 C.ar    1  UNL1       -0.0061
     28 C         141.6862  142.8280  161.3601 C.ar    1  UNL1       -0.0021
     29 C         141.5919  142.1703  160.0153 C.ar    1  UNL1        0.0111
     30 C         140.9530  142.8961  158.8685 C.ar    1  UNL1        0.0577
     31 CL        140.8586  142.2383  157.5238 Cl      1  UNL1       -0.0822
     32 C         140.4084  144.2796  159.0665 C.ar    1  UNL1        0.0111
     33 C         140.5027  144.9374  160.4114 C.ar    1  UNL1       -0.0021
@<TRIPOS>BOND
     1     8     9    1
     2     9    10   ar
     3    10    11   ar
     4    11     2    1
     5     2     3    1
     6     3     4    1
     7     4     5    1
     8     5     1    1
     9     1    17    1
    10    17    18    1
    11    18    19    1
    12    19    20   ar
    13    20    21   ar
    14    21    22   ar
    15    22    23    1
    16    22    24   ar
    17    24    25   ar
    18     1    26    1
    19    26    27    1
    20    27    28   ar
    21    28    29   ar
    22    29    30   ar
    23    30    31    1
    24    30    32   ar
    25    32    33   ar
    26     5     6    1
    27     6     7    1
    28    11    12   ar
    29    12    13   ar
    30    13     9   ar
    31     7     2    1
    32    25    19   ar
    33    33    27   ar
    34     8    14    1
    35     8    15    1
    36    13    16    1
@<TRIPOS>MOLECULE
*****
 33 36 0 0 0
SMALL
GASTEIGER

@<TRIPOS>ATOM
      1 N         138.2009  143.0183  163.4315 N.3     1  UNL1       -0.2698
      2 N         140.0078  144.5512  159.6058 N.pl3   1  UNL1       -0.2769
      3 C         140.1691  145.3313  160.8768 C.3     1  UNL1        0.0950
      4 C         139.5668  144.8204  162.1519 C.3     1  UNL1        0.0375
      5 C         138.8032  143.5293  162.1562 C.3     1  UNL1        0.0612
      6 C         138.6419  142.7491  160.8852 C.3     1  UNL1        0.0375
      7 C         139.2442  143.2601  159.6101 C.3     1  UNL1        0.0950
      8 N         143.0718  145.0106  155.3301 N.pl3   1  UNL1       -0.3278
      9 C         142.0185  145.2733  156.3652 C.ar    1  UNL1        0.2099
     10 N         141.7432  144.4320  157.5762 N.ar    1  UNL1       -0.1804
     11 C         140.6101  145.0621  158.3306 C.ar    1  UNL1        0.2395
     12 N         140.1850  146.2928  157.5858 N.ar    1  UNL1       -0.1349
     13 N         141.0554  146.4233  156.3712 N.ar    1  UNL1       -0.2453
     14 H         143.6591  144.2249  155.4137 H       1  UNL1        0.1451
     15 H         143.1759  145.6239  154.5671 H       1  UNL1        0.1451
     16 H         141.0037  147.1383  155.6963 H       1  UNL1        0.1919
     17 C         138.1914  143.8843  164.6562 C.3     1  UNL1        0.0770
     18 C         139.4515  144.0799  165.4461 C.3     1  UNL1        0.0437
     19 C         140.3853  142.9269  165.6663 C.ar    1  UNL1       -0.0207
     20 C         141.5377  142.7060  164.7319 C.ar    1  UNL1       -0.0034
     21 C         142.4714  141.5530  164.9521 C.ar    1  UNL1        0.0111
     22 C         142.2529  140.6207  166.1068 C.ar    1  UNL1        0.0577
     23 CL        143.1866  139.4677  166.3269 Cl      1  UNL1       -0.0822
     24 C         141.1005  140.8416  167.0412 C.ar    1  UNL1        0.0111
     25 C         140.1667  141.9948  166.8210 C.ar    1  UNL1       -0.0034
     26 C         137.6080  141.6414  163.4819 C.3     1  UNL1        0.0991
     27 C         138.4810  140.4595  163.7834 C.ar    1  UNL1       -0.0061
     28 C         139.6520  140.1472  162.8995 C.ar    1  UNL1       -0.0021
     29 C         140.5250  138.9653  163.2009 C.ar    1  UNL1        0.0111
     30 C         140.2271  138.0957  164.3863 C.ar    1  UNL1        0.0577
     31 CL        141.1001  136.9138  164.6877 Cl      1  UNL1       -0.0822
     32 C         139.0562  138.4080  165.2702 C.ar    1  UNL1        0.0111
     33 C         138.1831  139.5899  164.9687 C.ar    1  UNL1       -0.0021
@<TRIPOS>BOND
     1     8     9    1
     2     9    10   ar
     3    10    11   ar
     4    11     2    1
     5     2     3    1
     6     3     4    1
     7     4     5    1
     8     5     1    1
     9     1    17    1
    10    17    18    1
    11    18    19    1
    12    19    20   ar
    13    20    21   ar
    14    21    22   ar
    15    22    23    1
    16    22    24   ar
    17    24    25   ar
    18     1    26    1
    19    26    27    1
    20    27    28   ar
    21    28    29   ar
    22    29    30   ar
    23    30    31    1
    24    30    32   ar
    25    32    33   ar
    26     5     6    1
    27     6     7    1
    28    11    12   ar
    29    12    13   ar
    30    13     9   ar
    31     7     2    1
    32    25    19   ar
    33    33    27   ar
    34     8    14    1
    35     8    15    1
    36    13    16    1
@<TRIPOS>MOLECULE
*****
 33 36 0 0 0
SMALL
GASTEIGER

@<TRIPOS>ATOM
      1 N         138.4939  139.3013  163.4588 N.3     1  UNL1       -0.2698
      2 N         139.8309  140.1761  167.6656 N.pl3   1  UNL1       -0.2769
      3 C         138.5281  139.4732  167.4236 C.3     1  UNL1        0.0950
      4 C         138.0825  139.1816  166.0213 C.3     1  UNL1        0.0375
      5 C         138.9396  139.5929  164.8611 C.3     1  UNL1        0.0612
      6 C         140.2424  140.2958  165.1031 C.3     1  UNL1        0.0375
      7 C         140.6881  140.5874  166.5054 C.3     1  UNL1        0.0950
      8 N         142.2537  142.3748  171.8101 N.pl3   1  UNL1       -0.3278
      9 C         141.3903  141.4784  170.9729 C.ar    1  UNL1        0.2099
     10 N         141.2307  141.5482  169.4830 N.ar    1  UNL1       -0.1804
     11 C         140.2766  140.4678  169.0679 C.ar    1  UNL1        0.2395
     12 N         139.8465  139.7302  170.3011 N.ar    1  UNL1       -0.1349
     13 N         140.5348  140.3548  171.4785 N.ar    1  UNL1       -0.2453
     14 H         142.7815  143.0882  171.3839 H       1  UNL1        0.1451
     15 H         142.2926  142.2497  172.7859 H       1  UNL1        0.1451
     16 H         140.4414  140.0762  172.4181 H       1  UNL1        0.1919
     17 C         138.8704  138.0040  162.8067 C.3     1  UNL1        0.0770
     18 C         140.3087  137.5815  162.7522 C.3     1  UNL1        0.0437
     19 C         141.2344  138.2000  161.7471 C.ar    1  UNL1       -0.0207
     20 C         142.7187  138.0474  161.9010 C.ar    1  UNL1       -0.0034
     21 C         143.6445  138.6659  160.8959 C.ar    1  UNL1        0.0111
     22 C         143.0860  139.4371  159.7368 C.ar    1  UNL1        0.0577
     23 CL        144.0118  140.0556  158.7317 Cl      1  UNL1       -0.0822
     24 C         141.6018  139.5897  159.5829 C.ar    1  UNL1        0.0111
     25 C         140.6760  138.9712  160.5881 C.ar    1  UNL1       -0.0034
     26 C         137.6718  140.3070  162.7087 C.3     1  UNL1        0.0991
     27 C         138.1590  141.7185  162.5674 C.ar    1  UNL1       -0.0061
     28 C         137.6111  142.7939  163.4581 C.ar    1  UNL1       -0.0021
     29 C         138.0984  144.2054  163.3168 C.ar    1  UNL1        0.0111
     30 C         139.1336  144.5417  162.2847 C.ar    1  UNL1        0.0577
     31 CL        139.6209  145.9533  162.1433 Cl      1  UNL1       -0.0822
     32 C         139.6815  143.4664  161.3939 C.ar    1  UNL1        0.0111
     33 C         139.1943  142.0548  161.5353 C.ar    1  UNL1       -0.0021
@<TRIPOS>BOND
     1     8     9    1
     2     9    10   ar
     3    10    11   ar
     4    11     2    1
     5     2     3    1
     6     3     4    1
     7     4     5    1
     8     5     1    1
     9     1    17    1
    10    17    18    1
    11    18    19    1
    12    19    20   ar
    13    20    21   ar
    14    21    22   ar
    15    22    23    1
    16    22    24   ar
    17    24    25   ar
    18     1    26    1
    19    26    27    1
    20    27    28   ar
    21    28    29   ar
    22    29    30   ar
    23    30    31    1
    24    30    32   ar
    25    32    33   ar
    26     5     6    1
    27     6     7    1
    28    11    12   ar
    29    12    13   ar
    30    13     9   ar
    31     7     2    1
    32    25    19   ar
    33    33    27   ar
    34     8    14    1
    35     8    15    1
    36    13    16    1
@<TRIPOS>MOLECULE
*****
 33 36 0 0 0
SMALL
GASTEIGER

@<TRIPOS>ATOM
      1 N         144.1214  139.9368  164.0303 N.3     1  UNL1       -0.2698
      2 N         141.9173  140.8951  167.8347 N.pl3   1  UNL1       -0.2769
      3 C         141.9944  141.9132  166.7359 C.3     1  UNL1        0.0950
      4 C         142.7291  141.5938  165.4678 C.3     1  UNL1        0.0375
      5 C         143.3867  140.2562  165.2985 C.3     1  UNL1        0.0612
      6 C         143.3095  139.2382  166.3974 C.3     1  UNL1        0.0375
      7 C         142.5749  139.5576  167.6655 C.3     1  UNL1        0.0950
      8 N         138.9510  143.3736  171.4319 N.pl3   1  UNL1       -0.3278
      9 C         139.8191  142.3538  170.7563 C.ar    1  UNL1        0.2099
     10 N         140.3739  142.4502  169.3661 N.ar    1  UNL1       -0.1804
     11 C         141.1826  141.2146  169.1029 C.ar    1  UNL1        0.2395
     12 N         141.1276  140.3545  170.3306 N.ar    1  UNL1       -0.1349
     13 N         140.2850  141.0585  171.3525 N.ar    1  UNL1       -0.2453
     14 H         138.6973  144.1971  170.9558 H       1  UNL1        0.1451
     15 H         138.6348  143.2193  172.3514 H       1  UNL1        0.1451
     16 H         140.0745  140.7284  172.2558 H       1  UNL1        0.1919
     17 C         145.2815  140.7854  163.6016 C.3     1  UNL1        0.0770
     18 C         145.1279  141.7428  162.4570 C.3     1  UNL1        0.0437
     19 C         144.0175  142.7511  162.4665 C.ar    1  UNL1       -0.0207
     20 C         142.7795  142.5110  161.6542 C.ar    1  UNL1       -0.0034
     21 C         141.6690  143.5193  161.6637 C.ar    1  UNL1        0.0111
     22 C         141.7964  144.7677  162.4854 C.ar    1  UNL1        0.0577
     23 CL        140.6859  145.7760  162.4949 Cl      1  UNL1       -0.0822
     24 C         143.0344  145.0078  163.2977 C.ar    1  UNL1        0.0111
     25 C         144.1450  143.9995  163.2882 C.ar    1  UNL1       -0.0034
     26 C         143.6958  138.7687  163.1909 C.3     1  UNL1        0.0991
     27 C         142.2472  138.5764  162.8527 C.ar    1  UNL1       -0.0061
     28 C         141.4018  137.6493  163.6749 C.ar    1  UNL1       -0.0021
     29 C         139.9531  137.4569  163.3367 C.ar    1  UNL1        0.0111
     30 C         139.3499  138.1916  162.1764 C.ar    1  UNL1        0.0577
     31 CL        137.9013  137.9992  161.8382 Cl      1  UNL1       -0.0822
     32 C         140.1952  139.1186  161.3542 C.ar    1  UNL1        0.0111
     33 C         141.6440  139.3110  161.6924 C.ar    1  UNL1       -0.0021
@<TRIPOS>BOND
     1     8     9    1
     2     9    10   ar
     3    10    11   ar
     4    11     2    1
     5     2     3    1
     6     3     4    1
     7     4     5    1
     8     5     1    1
     9     1    17    1
    10    17    18    1
    11    18    19    1
    12    19    20   ar
    13    20    21   ar
    14    21    22   ar
    15    22    23    1
    16    22    24   ar
    17    24    25   ar
    18     1    26    1
    19    26    27    1
    20    27    28   ar
    21    28    29   ar
    22    29    30   ar
    23    30    31    1
    24    30    32   ar
    25    32    33   ar
    26     5     6    1
    27     6     7    1
    28    11    12   ar
    29    12    13   ar
    30    13     9   ar
    31     7     2    1
    32    25    19   ar
    33    33    27   ar
    34     8    14    1
    35     8    15    1
    36    13    16    1
@<TRIPOS>MOLECULE
*****
 33 36 0 0 0
SMALL
GASTEIGER

@<TRIPOS>ATOM
      1 N         139.9969  138.5909  161.2607 N.3     1  UNL1       -0.2698
      2 N         143.3145  140.0968  158.6195 N.pl3   1  UNL1       -0.2769
      3 C         143.5644  139.8677  160.0806 C.3     1  UNL1        0.0950
      4 C         142.4586  139.3657  160.9610 C.3     1  UNL1        0.0375
      5 C         141.1028  139.0929  160.3802 C.3     1  UNL1        0.0612
      6 C         140.8528  139.3220  158.9191 C.3     1  UNL1        0.0375
      7 C         141.9586  139.8240  158.0387 C.3     1  UNL1        0.0950
      8 N         147.0147  143.1960  156.4783 N.pl3   1  UNL1       -0.3278
      9 C         146.1212  142.0234  156.7549 C.ar    1  UNL1        0.2099
     10 N         145.0689  141.9489  157.8212 N.ar    1  UNL1       -0.1804
     11 C         144.4204  140.5988  157.7391 C.ar    1  UNL1        0.2395
     12 N         145.0719  139.8388  156.6219 N.ar    1  UNL1       -0.1349
     13 N         146.1230  140.7192  156.0137 N.ar    1  UNL1       -0.2453
     14 H         146.9376  144.0127  157.0226 H       1  UNL1        0.1451
     15 H         147.6782  143.1488  155.7526 H       1  UNL1        0.1451
     16 H         146.7109  140.4827  155.2602 H       1  UNL1        0.1919
     17 C         138.5691  138.9031  160.9231 C.3     1  UNL1        0.0770
     18 C         138.0657  140.3126  161.0233 C.3     1  UNL1        0.0437
     19 C         138.4498  141.1646  162.1965 C.ar    1  UNL1       -0.0207
     20 C         137.5471  141.2460  163.3918 C.ar    1  UNL1       -0.0034
     21 C         137.9312  142.0980  164.5650 C.ar    1  UNL1        0.0111
     22 C         139.2180  142.8686  164.5430 C.ar    1  UNL1        0.0577
     23 CL        139.6021  143.7206  165.7163 Cl      1  UNL1       -0.0822
     24 C         140.1206  142.7872  163.3478 C.ar    1  UNL1        0.0111
     25 C         139.7365  141.9351  162.1745 C.ar    1  UNL1       -0.0034
     26 C         140.3188  137.7767  162.4786 C.3     1  UNL1        0.0991
     27 C         140.0704  138.3417  163.8457 C.ar    1  UNL1       -0.0061
     28 C         141.0758  139.2632  164.4705 C.ar    1  UNL1       -0.0021
     29 C         140.8273  139.8283  165.8376 C.ar    1  UNL1        0.0111
     30 C         139.5736  139.4719  166.5799 C.ar    1  UNL1        0.0577
     31 CL        139.3251  140.0370  167.9470 Cl      1  UNL1       -0.0822
     32 C         138.5683  138.5505  165.9552 C.ar    1  UNL1        0.0111
     33 C         138.8167  137.9854  164.5881 C.ar    1  UNL1       -0.0021
@<TRIPOS>BOND
     1     8     9    1
     2     9    10   ar
     3    10    11   ar
     4    11     2    1
     5     2     3    1
     6     3     4    1
     7     4     5    1
     8     5     1    1
     9     1    17    1
    10    17    18    1
    11    18    19    1
    12    19    20   ar
    13    20    21   ar
    14    21    22   ar
    15    22    23    1
    16    22    24   ar
    17    24    25   ar
    18     1    26    1
    19    26    27    1
    20    27    28   ar
    21    28    29   ar
    22    29    30   ar
    23    30    31    1
    24    30    32   ar
    25    32    33   ar
    26     5     6    1
    27     6     7    1
    28    11    12   ar
    29    12    13   ar
    30    13     9   ar
    31     7     2    1
    32    25    19   ar
    33    33    27   ar
    34     8    14    1
    35     8    15    1
    36    13    16    1
