@<TRIPOS>MOLECULE
*****
 41 47 0 0 0
SMALL
GASTEIGER

@<TRIPOS>ATOM
      1 C         137.7428  139.5761  162.0582 C.3     1  UNL1        0.0700
      2 C         138.4660  138.3272  162.4670 C.3     1  UNL1        0.0193
      3 C         139.0616  138.2207  163.8395 C.3     1  UNL1        0.0287
      4 C         138.9341  139.3631  164.8033 C.3     1  UNL1        0.0955
      5 C         138.2108  140.6120  164.3945 C.3     1  UNL1        0.0287
      6 C         137.6152  140.7185  163.0219 C.3     1  UNL1        0.0193
      7 O         138.5912  139.4679  164.0621 O.3     1  UNL1       -0.3571
      8 C         138.0526  139.5642  162.8210 C.3     1  UNL1        0.1562
      9 N         137.1471  139.6827  160.6856 N.3     1  UNL1       -0.2926
     10 H         136.8863  138.7378  160.4036 H       1  UNL1        0.1236
     11 C         137.9528  140.2633  159.5615 C.3     1  UNL1        0.1152
     12 O         143.8666  144.6085  162.1878 O.2     1  UNL1       -0.2707
     13 C         143.3691  143.3817  161.4823 C.2     1  UNL1        0.2718
     14 C         144.3453  142.3766  160.9469 C.3     1  UNL1        0.2898
     15 O         143.8479  141.1498  160.2415 O.3     1  UNL1       -0.4628
     16 C         142.3741  140.9282  160.0715 C.ar    1  UNL1        0.1708
     17 C         141.8766  139.7015  159.3661 C.ar    1  UNL1        0.0411
     18 C         140.4028  139.4799  159.1961 C.ar    1  UNL1        0.0193
     19 C         139.4266  140.4850  159.7315 C.ar    1  UNL1        0.0765
     20 N         139.9241  141.7117  160.4370 N.ar    1  UNL1       -0.2304
     21 C         141.3979  141.9333  160.6069 C.ar    1  UNL1        0.1682
     22 N         141.8953  143.1600  161.3123 N.am    1  UNL1       -0.2639
     23 H         141.2545  143.8197  161.6638 H       1  UNL1        0.1565
     24 C         139.5297  139.2565  166.1758 C.3     1  UNL1        0.0604
     25 C         140.6850  140.1318  166.5621 C.3     1  UNL1        0.1336
     26 O         141.1448  139.8762  165.1574 O.3     1  UNL1       -0.3806
     27 C         141.9363  140.9537  166.6547 C.3     1  UNL1        0.1402
     28 N         142.0084  141.5343  168.0359 N.ar    1  UNL1       -0.2915
     29 C         143.0170  142.4248  168.6990 C.ar    1  UNL1        0.2611
     30 O         144.2239  142.8879  167.9380 O.2     1  UNL1       -0.2670
     31 C         142.8188  142.8523  170.1230 C.ar    1  UNL1        0.0623
     32 C         141.6120  142.3893  170.8840 C.ar    1  UNL1        0.0255
     33 C         140.6033  141.4988  170.2210 C.ar    1  UNL1        0.0981
     34 N         139.3219  140.8914  170.7304 N.ar    1  UNL1       -0.2302
     35 C         138.4036  140.0079  169.9391 C.ar    1  UNL1        0.1654
     36 CL        137.1545  139.4679  170.5700 Cl      1  UNL1       -0.0589
     37 C         138.7345  139.6645  168.5169 C.ar    1  UNL1        0.1680
     38 F         137.8162  138.7810  167.7257 F       1  UNL1       -0.2019
     39 C         139.9837  140.2045  167.8861 C.ar    1  UNL1        0.0508
     40 C         140.8016  141.0713  168.7969 C.ar    1  UNL1        0.0807
     41 H         141.9816  140.3413  165.0014 H       1  UNL1        0.2108
@<TRIPOS>BOND
     1    12    13    2
     2    13    14    1
     3    14    15    1
     4    15    16    1
     5    16    17   ar
     6    17    18   ar
     7    18    19   ar
     8    19    11    1
     9    11     9    1
    10     9     1    1
    11     1     2    1
    12     2     3    1
    13     3     4    1
    14     4    24    1
    15    24    25    1
    16    25    26    1
    17    25    27    1
    18    27    28    1
    19    28    29   ar
    20    29    30    2
    21    29    31   ar
    22    31    32   ar
    23    32    33   ar
    24    33    34   ar
    25    34    35   ar
    26    35    36    1
    27    35    37   ar
    28    37    38    1
    29    37    39   ar
    30    39    40   ar
    31     4     5    1
    32     5     6    1
    33     4     7    1
    34     7     8    1
    35    19    20   ar
    36    20    21   ar
    37    21    22    1
    38    22    13   am
    39    21    16   ar
    40     6     1    1
    41     8     1    1
    42    39    25    1
    43    40    28   ar
    44    40    33   ar
    45     9    10    1
    46    26    41    1
    47    22    23    1
@<TRIPOS>MOLECULE
*****
 41 47 0 0 0
SMALL
GASTEIGER

@<TRIPOS>ATOM
      1 C         138.0205  139.6271  161.2069 C.3     1  UNL1        0.0700
      2 C         138.4246  140.8018  162.0476 C.3     1  UNL1        0.0193
      3 C         139.2320  140.5900  163.2938 C.3     1  UNL1        0.0287
      4 C         139.6355  139.2032  163.6994 C.3     1  UNL1        0.0955
      5 C         139.2315  138.0285  162.8587 C.3     1  UNL1        0.0287
      6 C         138.4240  138.2405  161.6125 C.3     1  UNL1        0.0193
      7 O         139.1931  139.2696  163.0081 O.3     1  UNL1       -0.3571
      8 C         138.4630  139.4612  161.8813 C.3     1  UNL1        0.1562
      9 N         137.2131  139.8390  159.9607 N.3     1  UNL1       -0.2926
     10 H         136.7534  138.9524  159.7533 H       1  UNL1        0.1236
     11 C         137.8875  140.2831  158.6966 C.3     1  UNL1        0.1152
     12 O         142.0746  134.6692  155.2755 O.2     1  UNL1       -0.2707
     13 C         142.0089  135.9626  156.0325 C.2     1  UNL1        0.2718
     14 C         143.2733  136.6779  156.4060 C.3     1  UNL1        0.2898
     15 O         143.2077  137.9713  157.1630 O.3     1  UNL1       -0.4628
     16 C         141.8776  138.5492  157.5464 C.ar    1  UNL1        0.1708
     17 C         141.8119  139.8425  158.3033 C.ar    1  UNL1        0.0411
     18 C         140.4819  140.4204  158.6867 C.ar    1  UNL1        0.0193
     19 C         139.2175  139.7050  158.3132 C.ar    1  UNL1        0.0765
     20 N         139.2832  138.4117  157.5562 N.ar    1  UNL1       -0.2304
     21 C         140.6133  137.8338  157.1728 C.ar    1  UNL1        0.1682
     22 N         140.6789  136.5405  156.4159 N.am    1  UNL1       -0.2639
     23 H         139.8490  136.0710  156.1707 H       1  UNL1        0.1565
     24 C         140.4430  138.9914  164.9456 C.3     1  UNL1        0.0604
     25 C         139.8942  139.4147  166.2759 C.3     1  UNL1        0.1336
     26 O         138.8156  138.4177  165.9714 O.3     1  UNL1       -0.3806
     27 C         139.1199  139.6296  167.5425 C.3     1  UNL1        0.1402
     28 N         139.8347  140.6709  168.3517 N.ar    1  UNL1       -0.2915
     29 C         139.5354  141.2841  169.6875 C.ar    1  UNL1        0.2611
     30 O         138.3194  140.8555  170.4540 O.2     1  UNL1       -0.2670
     31 C         140.4521  142.3260  170.2568 C.ar    1  UNL1        0.0623
     32 C         141.6681  142.7547  169.4902 C.ar    1  UNL1        0.0255
     33 C         141.9674  142.1414  168.1545 C.ar    1  UNL1        0.0981
     34 N         143.0938  142.3733  167.1808 N.ar    1  UNL1       -0.2302
     35 C         143.2627  141.6746  165.8643 C.ar    1  UNL1        0.1654
     36 CL        144.4348  142.0010  164.9870 Cl      1  UNL1       -0.0589
     37 C         142.2596  140.6496  165.4250 C.ar    1  UNL1        0.1680
     38 F         142.4285  139.9510  164.1085 F       1  UNL1       -0.2019
     39 C         141.0875  140.3232  166.3023 C.ar    1  UNL1        0.0508
     40 C         141.0507  141.0996  167.5852 C.ar    1  UNL1        0.0807
     41 H         138.1776  138.3984  166.7018 H       1  UNL1        0.2108
@<TRIPOS>BOND
     1    12    13    2
     2    13    14    1
     3    14    15    1
     4    15    16    1
     5    16    17   ar
     6    17    18   ar
     7    18    19   ar
     8    19    11    1
     9    11     9    1
    10     9     1    1
    11     1     2    1
    12     2     3    1
    13     3     4    1
    14     4    24    1
    15    24    25    1
    16    25    26    1
    17    25    27    1
    18    27    28    1
    19    28    29   ar
    20    29    30    2
    21    29    31   ar
    22    31    32   ar
    23    32    33   ar
    24    33    34   ar
    25    34    35   ar
    26    35    36    1
    27    35    37   ar
    28    37    38    1
    29    37    39   ar
    30    39    40   ar
    31     4     5    1
    32     5     6    1
    33     4     7    1
    34     7     8    1
    35    19    20   ar
    36    20    21   ar
    37    21    22    1
    38    22    13   am
    39    21    16   ar
    40     6     1    1
    41     8     1    1
    42    39    25    1
    43    40    28   ar
    44    40    33   ar
    45     9    10    1
    46    26    41    1
    47    22    23    1
@<TRIPOS>MOLECULE
*****
 41 47 0 0 0
SMALL
GASTEIGER

@<TRIPOS>ATOM
      1 C         141.7995  144.4507  161.8687 C.3     1  UNL1        0.0700
      2 C         143.0805  143.6766  161.9667 C.3     1  UNL1        0.0193
      3 C         143.2600  142.6578  163.0529 C.3     1  UNL1        0.0287
      4 C         142.1583  142.4132  164.0413 C.3     1  UNL1        0.0955
      5 C         140.8773  143.1874  163.9433 C.3     1  UNL1        0.0287
      6 C         140.6979  144.2061  162.8570 C.3     1  UNL1        0.0193
      7 O         142.0138  142.9816  163.4634 O.3     1  UNL1       -0.3571
      8 C         141.8515  143.9028  162.4812 C.3     1  UNL1        0.1562
      9 N         141.6200  145.4695  160.7825 N.3     1  UNL1       -0.2926
     10 H         140.9548  146.1590  161.1324 H       1  UNL1        0.1236
     11 C         141.1320  145.0448  159.4292 C.3     1  UNL1        0.1152
     12 O         147.3752  141.8112  156.0650 O.2     1  UNL1       -0.2707
     13 C         145.9380  141.7289  156.4870 C.2     1  UNL1        0.2718
     14 C         145.1450  140.4864  156.2094 C.3     1  UNL1        0.2898
     15 O         143.7079  140.4039  156.6314 O.3     1  UNL1       -0.4628
     16 C         143.0639  141.5641  157.3308 C.ar    1  UNL1        0.1708
     17 C         141.6269  141.4818  157.7527 C.ar    1  UNL1        0.0411
     18 C         140.9829  142.6420  158.4522 C.ar    1  UNL1        0.0193
     19 C         141.7760  143.8846  158.7297 C.ar    1  UNL1        0.0765
     20 N         143.2131  143.9669  158.3078 N.ar    1  UNL1       -0.2304
     21 C         143.8570  142.8067  157.6083 C.ar    1  UNL1        0.1682
     22 N         145.2941  142.8891  157.1864 N.am    1  UNL1       -0.2639
     23 H         145.8146  143.7046  157.3686 H       1  UNL1        0.1565
     24 C         142.3378  141.3944  165.1275 C.3     1  UNL1        0.0604
     25 C         142.4759  141.8359  166.5544 C.3     1  UNL1        0.1336
     26 O         143.6478  142.6150  166.0352 O.3     1  UNL1       -0.3806
     27 C         142.8589  142.4402  167.8728 C.3     1  UNL1        0.1402
     28 N         141.8949  141.9423  168.9085 N.ar    1  UNL1       -0.2915
     29 C         141.7820  142.2016  170.3816 C.ar    1  UNL1        0.2611
     30 O         142.7608  143.1136  171.0598 O.2     1  UNL1       -0.2670
     31 C         140.6902  141.5488  171.1764 C.ar    1  UNL1        0.0623
     32 C         139.7113  140.6368  170.4982 C.ar    1  UNL1        0.0255
     33 C         139.8242  140.3775  169.0251 C.ar    1  UNL1        0.0981
     34 N         138.9989  139.5247  168.0967 N.ar    1  UNL1       -0.2302
     35 C         139.2362  139.3613  166.6246 C.ar    1  UNL1        0.1654
     36 CL        138.3354  138.4780  165.8132 Cl      1  UNL1       -0.0589
     37 C         140.3743  140.0812  165.9640 C.ar    1  UNL1        0.1680
     38 F         140.6116  139.9178  164.4919 F       1  UNL1       -0.2019
     39 C         141.2751  140.9645  166.7754 C.ar    1  UNL1        0.0508
     40 C         140.9160  141.0302  168.2303 C.ar    1  UNL1        0.0807
     41 H         144.0601  143.1035  166.7647 H       1  UNL1        0.2108
@<TRIPOS>BOND
     1    12    13    2
     2    13    14    1
     3    14    15    1
     4    15    16    1
     5    16    17   ar
     6    17    18   ar
     7    18    19   ar
     8    19    11    1
     9    11     9    1
    10     9     1    1
    11     1     2    1
    12     2     3    1
    13     3     4    1
    14     4    24    1
    15    24    25    1
    16    25    26    1
    17    25    27    1
    18    27    28    1
    19    28    29   ar
    20    29    30    2
    21    29    31   ar
    22    31    32   ar
    23    32    33   ar
    24    33    34   ar
    25    34    35   ar
    26    35    36    1
    27    35    37   ar
    28    37    38    1
    29    37    39   ar
    30    39    40   ar
    31     4     5    1
    32     5     6    1
    33     4     7    1
    34     7     8    1
    35    19    20   ar
    36    20    21   ar
    37    21    22    1
    38    22    13   am
    39    21    16   ar
    40     6     1    1
    41     8     1    1
    42    39    25    1
    43    40    28   ar
    44    40    33   ar
    45     9    10    1
    46    26    41    1
    47    22    23    1
@<TRIPOS>MOLECULE
*****
 41 47 0 0 0
SMALL
GASTEIGER

@<TRIPOS>ATOM
      1 C         141.8662  143.4932  161.2384 C.3     1  UNL1        0.0700
      2 C         142.8172  142.3369  161.3313 C.3     1  UNL1        0.0193
      3 C         142.8380  141.4800  162.5623 C.3     1  UNL1        0.0287
      4 C         141.9079  141.7795  163.7004 C.3     1  UNL1        0.0955
      5 C         140.9569  142.9357  163.6075 C.3     1  UNL1        0.0287
      6 C         140.9361  143.7926  162.3765 C.3     1  UNL1        0.0193
      7 O         141.8599  142.2772  163.0462 O.3     1  UNL1       -0.3571
      8 C         141.8411  143.0520  161.9332 C.3     1  UNL1        0.1562
      9 N         141.8453  144.3501  160.0074 N.3     1  UNL1       -0.2926
     10 H         141.4799  145.2601  160.2882 H       1  UNL1        0.1236
     11 C         141.0567  143.9187  158.8066 C.3     1  UNL1        0.1152
     12 O         137.8500  150.3615  155.8136 O.2     1  UNL1       -0.2707
     13 C         138.7300  149.1564  155.6598 C.2     1  UNL1        0.2718
     14 C         139.4208  148.8939  154.3546 C.3     1  UNL1        0.2898
     15 O         140.3008  147.6889  154.2007 O.3     1  UNL1       -0.4628
     16 C         140.4897  146.7463  155.3522 C.ar    1  UNL1        0.1708
     17 C         141.3696  145.5413  155.1984 C.ar    1  UNL1        0.0411
     18 C         141.5586  144.5988  156.3499 C.ar    1  UNL1        0.0193
     19 C         140.8677  144.8613  157.6552 C.ar    1  UNL1        0.0765
     20 N         139.9878  146.0663  157.8089 N.ar    1  UNL1       -0.2304
     21 C         139.7988  147.0088  156.6574 C.ar    1  UNL1        0.1682
     22 N         138.9189  148.2138  156.8113 N.am    1  UNL1       -0.2639
     23 H         138.4654  148.3861  157.6680 H       1  UNL1        0.1565
     24 C         141.9288  140.9226  164.9314 C.3     1  UNL1        0.0604
     25 C         142.3602  141.5060  166.2442 C.3     1  UNL1        0.1336
     26 O         143.4798  142.0925  165.4364 O.3     1  UNL1       -0.3806
     27 C         143.0257  142.2121  167.3881 C.3     1  UNL1        0.1402
     28 N         142.2272  141.9401  168.6284 N.ar    1  UNL1       -0.2915
     29 C         142.4057  142.3755  170.0527 C.ar    1  UNL1        0.2611
     30 O         143.5647  143.2497  170.4300 O.2     1  UNL1       -0.2670
     31 C         141.4252  141.9366  171.0995 C.ar    1  UNL1        0.0623
     32 C         140.2661  141.0624  170.7222 C.ar    1  UNL1        0.0255
     33 C         140.0876  140.6270  169.2979 C.ar    1  UNL1        0.0981
     34 N         139.0386  139.7667  168.6423 N.ar    1  UNL1       -0.2302
     35 C         138.9902  139.4129  167.1855 C.ar    1  UNL1        0.1654
     36 CL        137.8859  138.5437  166.6610 Cl      1  UNL1       -0.0589
     37 C         140.0461  139.9284  166.2530 C.ar    1  UNL1        0.1680
     38 F         139.9977  139.5746  164.7962 F       1  UNL1       -0.2019
     39 C         141.1504  140.7976  166.7775 C.ar    1  UNL1        0.0508
     40 C         141.0681  141.0659  168.2510 C.ar    1  UNL1        0.0807
     41 H         144.0574  142.6142  166.0153 H       1  UNL1        0.2108
@<TRIPOS>BOND
     1    12    13    2
     2    13    14    1
     3    14    15    1
     4    15    16    1
     5    16    17   ar
     6    17    18   ar
     7    18    19   ar
     8    19    11    1
     9    11     9    1
    10     9     1    1
    11     1     2    1
    12     2     3    1
    13     3     4    1
    14     4    24    1
    15    24    25    1
    16    25    26    1
    17    25    27    1
    18    27    28    1
    19    28    29   ar
    20    29    30    2
    21    29    31   ar
    22    31    32   ar
    23    32    33   ar
    24    33    34   ar
    25    34    35   ar
    26    35    36    1
    27    35    37   ar
    28    37    38    1
    29    37    39   ar
    30    39    40   ar
    31     4     5    1
    32     5     6    1
    33     4     7    1
    34     7     8    1
    35    19    20   ar
    36    20    21   ar
    37    21    22    1
    38    22    13   am
    39    21    16   ar
    40     6     1    1
    41     8     1    1
    42    39    25    1
    43    40    28   ar
    44    40    33   ar
    45     9    10    1
    46    26    41    1
    47    22    23    1
@<TRIPOS>MOLECULE
*****
 41 47 0 0 0
SMALL
GASTEIGER

@<TRIPOS>ATOM
      1 C         141.3845  139.0536  158.1535 C.3     1  UNL1        0.0700
      2 C         140.0389  138.4398  158.4038 C.3     1  UNL1        0.0193
      3 C         139.5744  138.1984  159.8095 C.3     1  UNL1        0.0287
      4 C         140.4556  138.5710  160.9650 C.3     1  UNL1        0.0955
      5 C         141.8011  139.1848  160.7147 C.3     1  UNL1        0.0287
      6 C         142.2656  139.4261  159.3089 C.3     1  UNL1        0.0193
      7 O         140.7533  138.7223  160.2124 O.3     1  UNL1       -0.3571
      8 C         141.1732  138.9405  158.9414 C.3     1  UNL1        0.1562
      9 N         141.8490  139.2950  156.7478 N.3     1  UNL1       -0.2926
     10 H         141.0246  139.2322  156.1504 H       1  UNL1        0.1236
     11 C         142.8930  138.4059  156.1399 C.3     1  UNL1        0.1152
     12 O         145.1976  131.2065  158.0395 O.2     1  UNL1       -0.2707
     13 C         144.2187  132.1217  157.3654 C.2     1  UNL1        0.2718
     14 C         143.0294  131.5523  156.6505 C.3     1  UNL1        0.2898
     15 O         142.0505  132.4675  155.9764 O.3     1  UNL1       -0.4628
     16 C         142.2612  133.9521  156.0173 C.ar    1  UNL1        0.1708
     17 C         141.2824  134.8673  155.3432 C.ar    1  UNL1        0.0411
     18 C         141.4930  136.3519  155.3841 C.ar    1  UNL1        0.0193
     19 C         142.6824  136.9212  156.0991 C.ar    1  UNL1        0.0765
     20 N         143.6612  136.0060  156.7731 N.ar    1  UNL1       -0.2304
     21 C         143.4505  134.5214  156.7322 C.ar    1  UNL1        0.1682
     22 N         144.4293  133.6063  157.4063 N.am    1  UNL1       -0.2639
     23 H         145.2100  133.9800  157.8756 H       1  UNL1        0.1565
     24 C         139.9911  138.3296  162.3707 C.3     1  UNL1        0.0604
     25 C         140.9937  138.1700  163.4749 C.3     1  UNL1        0.1336
     26 O         141.4778  137.0111  162.6548 O.3     1  UNL1       -0.3806
     27 C         142.0975  137.7681  164.4077 C.3     1  UNL1        0.1402
     28 N         142.0859  138.7120  165.5735 N.ar    1  UNL1       -0.2915
     29 C         142.9435  138.8016  166.8009 C.ar    1  UNL1        0.2611
     30 O         144.0545  137.8163  167.0131 O.2     1  UNL1       -0.2670
     31 C         142.6901  139.8764  167.8160 C.ar    1  UNL1        0.0623
     32 C         141.5791  140.8616  167.6037 C.ar    1  UNL1        0.0255
     33 C         140.7216  140.7720  166.3763 C.ar    1  UNL1        0.0981
     34 N         139.5583  141.6082  165.9095 N.ar    1  UNL1       -0.2302
     35 C         138.7877  141.3948  164.6404 C.ar    1  UNL1        0.1654
     36 CL        137.6464  142.3044  164.2939 Cl      1  UNL1       -0.0589
     37 C         139.1586  140.2718  163.7177 C.ar    1  UNL1        0.1680
     38 F         138.3881  140.0584  162.4486 F       1  UNL1       -0.2019
     39 C         140.2999  139.3622  164.0642 C.ar    1  UNL1        0.0508
     40 C         140.9750  139.6972  165.3612 C.ar    1  UNL1        0.0807
     41 H         142.2279  136.5892  163.1024 H       1  UNL1        0.2108
@<TRIPOS>BOND
     1    12    13    2
     2    13    14    1
     3    14    15    1
     4    15    16    1
     5    16    17   ar
     6    17    18   ar
     7    18    19   ar
     8    19    11    1
     9    11     9    1
    10     9     1    1
    11     1     2    1
    12     2     3    1
    13     3     4    1
    14     4    24    1
    15    24    25    1
    16    25    26    1
    17    25    27    1
    18    27    28    1
    19    28    29   ar
    20    29    30    2
    21    29    31   ar
    22    31    32   ar
    23    32    33   ar
    24    33    34   ar
    25    34    35   ar
    26    35    36    1
    27    35    37   ar
    28    37    38    1
    29    37    39   ar
    30    39    40   ar
    31     4     5    1
    32     5     6    1
    33     4     7    1
    34     7     8    1
    35    19    20   ar
    36    20    21   ar
    37    21    22    1
    38    22    13   am
    39    21    16   ar
    40     6     1    1
    41     8     1    1
    42    39    25    1
    43    40    28   ar
    44    40    33   ar
    45     9    10    1
    46    26    41    1
    47    22    23    1
@<TRIPOS>MOLECULE
*****
 41 47 0 0 0
SMALL
GASTEIGER

@<TRIPOS>ATOM
      1 C         142.1731  137.9190  158.0589 C.3     1  UNL1        0.0700
      2 C         140.7941  137.9825  157.4722 C.3     1  UNL1        0.0193
      3 C         139.6595  138.5374  158.2813 C.3     1  UNL1        0.0287
      4 C         139.9040  139.0290  159.6774 C.3     1  UNL1        0.0955
      5 C         141.2830  138.9655  160.2641 C.3     1  UNL1        0.0287
      6 C         142.4176  138.4106  159.4548 C.3     1  UNL1        0.0193
      7 O         140.5571  138.7332  159.2725 O.3     1  UNL1       -0.3571
      8 C         141.5830  138.2315  158.5408 C.3     1  UNL1        0.1562
      9 N         143.3077  137.3641  157.2497 N.3     1  UNL1       -0.2926
     10 H         143.8946  138.1550  156.9843 H       1  UNL1        0.1236
     11 C         143.0266  136.5929  155.9943 C.3     1  UNL1        0.1152
     12 O         145.1843  129.6286  158.7500 O.2     1  UNL1       -0.2707
     13 C         144.2813  130.4626  157.8901 C.2     1  UNL1        0.2718
     14 C         143.1946  129.8089  157.0891 C.3     1  UNL1        0.2898
     15 O         142.2915  130.6427  156.2292 O.3     1  UNL1       -0.4628
     16 C         142.4753  132.1303  156.1705 C.ar    1  UNL1        0.1708
     17 C         141.5724  132.9641  155.3107 C.ar    1  UNL1        0.0411
     18 C         141.7561  134.4517  155.2520 C.ar    1  UNL1        0.0193
     19 C         142.8429  135.1054  156.0530 C.ar    1  UNL1        0.0765
     20 N         143.7458  134.2715  156.9128 N.ar    1  UNL1       -0.2304
     21 C         143.5620  132.7839  156.9716 C.ar    1  UNL1        0.1682
     22 N         144.4650  131.9501  157.8314 N.am    1  UNL1       -0.2639
     23 H         145.1783  132.3792  158.3571 H       1  UNL1        0.1565
     24 C         138.7694  139.5839  160.4865 C.3     1  UNL1        0.0604
     25 C         138.7181  141.0500  160.7994 C.3     1  UNL1        0.1336
     26 O         138.7807  141.2098  159.3092 O.3     1  UNL1       -0.3806
     27 C         138.6798  142.5495  160.8007 C.3     1  UNL1        0.1402
     28 N         138.6043  143.0100  162.2263 N.ar    1  UNL1       -0.2915
     29 C         138.5421  144.3787  162.8370 C.ar    1  UNL1        0.2611
     30 O         138.5505  145.5936  161.9572 O.2     1  UNL1       -0.2670
     31 C         138.4715  144.5324  164.3274 C.ar    1  UNL1        0.0623
     32 C         138.4631  143.3175  165.2071 C.ar    1  UNL1        0.0255
     33 C         138.5253  141.9488  164.5964 C.ar    1  UNL1        0.0981
     34 N         138.5322  140.5777  165.2211 N.ar    1  UNL1       -0.2302
     35 C         138.5989  139.2806  164.4707 C.ar    1  UNL1        0.1654
     36 CL        138.5985  137.9804  165.2188 Cl      1  UNL1       -0.0589
     37 C         138.6658  139.2837  162.9722 C.ar    1  UNL1        0.1680
     38 F         138.7325  137.9866  162.2219 F       1  UNL1       -0.2019
     39 C         138.6662  140.5838  162.2241 C.ar    1  UNL1        0.0508
     40 C         138.5959  141.7951  163.1060 C.ar    1  UNL1        0.0807
     41 H         138.7667  142.1533  159.0843 H       1  UNL1        0.2108
@<TRIPOS>BOND
     1    12    13    2
     2    13    14    1
     3    14    15    1
     4    15    16    1
     5    16    17   ar
     6    17    18   ar
     7    18    19   ar
     8    19    11    1
     9    11     9    1
    10     9     1    1
    11     1     2    1
    12     2     3    1
    13     3     4    1
    14     4    24    1
    15    24    25    1
    16    25    26    1
    17    25    27    1
    18    27    28    1
    19    28    29   ar
    20    29    30    2
    21    29    31   ar
    22    31    32   ar
    23    32    33   ar
    24    33    34   ar
    25    34    35   ar
    26    35    36    1
    27    35    37   ar
    28    37    38    1
    29    37    39   ar
    30    39    40   ar
    31     4     5    1
    32     5     6    1
    33     4     7    1
    34     7     8    1
    35    19    20   ar
    36    20    21   ar
    37    21    22    1
    38    22    13   am
    39    21    16   ar
    40     6     1    1
    41     8     1    1
    42    39    25    1
    43    40    28   ar
    44    40    33   ar
    45     9    10    1
    46    26    41    1
    47    22    23    1
@<TRIPOS>MOLECULE
*****
 41 47 0 0 0
SMALL
GASTEIGER

@<TRIPOS>ATOM
      1 C         141.6496  144.4739  161.5280 C.3     1  UNL1        0.0700
      2 C         142.5362  143.2723  161.3857 C.3     1  UNL1        0.0193
      3 C         142.6379  142.2786  162.5047 C.3     1  UNL1        0.0287
      4 C         141.8530  142.4865  163.7661 C.3     1  UNL1        0.0955
      5 C         140.9664  143.6880  163.9083 C.3     1  UNL1        0.0287
      6 C         140.8647  144.6817  162.7892 C.3     1  UNL1        0.0193
      7 O         141.7648  143.0583  163.1802 O.3     1  UNL1       -0.3571
      8 C         141.6728  143.9568  162.1684 C.3     1  UNL1        0.1562
      9 N         141.5478  145.4676  160.4089 N.3     1  UNL1       -0.2926
     10 H         141.4586  146.3879  160.8396 H       1  UNL1        0.1236
     11 C         140.4425  145.3520  159.4015 C.3     1  UNL1        0.1152
     12 O         144.9570  144.1697  153.1587 O.2     1  UNL1       -0.2707
     13 C         143.7386  144.7822  153.7836 C.2     1  UNL1        0.2718
     14 C         142.8068  145.6131  152.9523 C.3     1  UNL1        0.2898
     15 O         141.5883  146.2257  153.5771 O.3     1  UNL1       -0.4628
     16 C         141.3019  146.0072  155.0332 C.ar    1  UNL1        0.1708
     17 C         140.0835  146.6197  155.6580 C.ar    1  UNL1        0.0411
     18 C         139.7971  146.4013  157.1141 C.ar    1  UNL1        0.0193
     19 C         140.7291  145.5704  157.9454 C.ar    1  UNL1        0.0765
     20 N         141.9474  144.9579  157.3206 N.ar    1  UNL1       -0.2304
     21 C         142.2338  145.1763  155.8644 C.ar    1  UNL1        0.1682
     22 N         143.4522  144.5638  155.2397 N.am    1  UNL1       -0.2639
     23 H         144.0638  144.0184  155.7853 H       1  UNL1        0.1565
     24 C         141.9547  141.4927  164.8851 C.3     1  UNL1        0.0604
     25 C         142.4469  141.9291  166.2332 C.3     1  UNL1        0.1336
     26 O         143.5188  142.6202  165.4437 O.3     1  UNL1       -0.3806
     27 C         143.1632  142.5099  167.4162 C.3     1  UNL1        0.1402
     28 N         142.4311  142.0865  168.6551 N.ar    1  UNL1       -0.2915
     29 C         142.6776  142.3592  170.1093 C.ar    1  UNL1        0.2611
     30 O         143.8464  143.2017  170.5267 O.2     1  UNL1       -0.2670
     31 C         141.7555  141.7895  171.1461 C.ar    1  UNL1        0.0623
     32 C         140.5867  140.9470  170.7287 C.ar    1  UNL1        0.0255
     33 C         140.3402  140.6742  169.2745 C.ar    1  UNL1        0.0981
     34 N         139.2671  139.8788  168.5772 N.ar    1  UNL1       -0.2302
     35 C         139.1480  139.6928  167.0935 C.ar    1  UNL1        0.1654
     36 CL        138.0264  138.8728  166.5281 Cl      1  UNL1       -0.0589
     37 C         140.1506  140.3267  166.1754 C.ar    1  UNL1        0.1680
     38 F         140.0315  140.1407  164.6917 F       1  UNL1       -0.2019
     39 C         141.2721  141.1467  166.7408 C.ar    1  UNL1        0.0508
     40 C         141.2623  141.2440  168.2377 C.ar    1  UNL1        0.0807
     41 H         144.1203  143.0810  166.0494 H       1  UNL1        0.2108
@<TRIPOS>BOND
     1    12    13    2
     2    13    14    1
     3    14    15    1
     4    15    16    1
     5    16    17   ar
     6    17    18   ar
     7    18    19   ar
     8    19    11    1
     9    11     9    1
    10     9     1    1
    11     1     2    1
    12     2     3    1
    13     3     4    1
    14     4    24    1
    15    24    25    1
    16    25    26    1
    17    25    27    1
    18    27    28    1
    19    28    29   ar
    20    29    30    2
    21    29    31   ar
    22    31    32   ar
    23    32    33   ar
    24    33    34   ar
    25    34    35   ar
    26    35    36    1
    27    35    37   ar
    28    37    38    1
    29    37    39   ar
    30    39    40   ar
    31     4     5    1
    32     5     6    1
    33     4     7    1
    34     7     8    1
    35    19    20   ar
    36    20    21   ar
    37    21    22    1
    38    22    13   am
    39    21    16   ar
    40     6     1    1
    41     8     1    1
    42    39    25    1
    43    40    28   ar
    44    40    33   ar
    45     9    10    1
    46    26    41    1
    47    22    23    1
@<TRIPOS>MOLECULE
*****
 41 47 0 0 0
SMALL
GASTEIGER

@<TRIPOS>ATOM
      1 C         141.4920  144.3944  161.3711 C.3     1  UNL1        0.0700
      2 C         142.5756  144.1852  162.3871 C.3     1  UNL1        0.0193
      3 C         142.3400  143.2792  163.5591 C.3     1  UNL1        0.0287
      4 C         141.0208  142.5823  163.7152 C.3     1  UNL1        0.0955
      5 C         139.9373  142.7915  162.6992 C.3     1  UNL1        0.0287
      6 C         140.1729  143.6975  161.5272 C.3     1  UNL1        0.0193
      7 O         141.1033  143.0693  163.0564 O.3     1  UNL1       -0.3571
      8 C         141.3163  143.8885  161.9966 C.3     1  UNL1        0.1562
      9 N         141.7276  145.3004  160.1990 N.3     1  UNL1       -0.2926
     10 H         140.9752  145.9891  160.2034 H       1  UNL1        0.1236
     11 C         141.7866  144.7323  158.8121 C.3     1  UNL1        0.1152
     12 O         140.1997  137.3026  157.0708 O.2     1  UNL1       -0.2707
     13 C         141.1899  138.3679  157.4378 C.2     1  UNL1        0.2718
     14 C         142.6413  138.0219  157.5914 C.3     1  UNL1        0.2898
     15 O         143.6316  139.0871  157.9584 O.3     1  UNL1       -0.4628
     16 C         143.1704  140.4984  158.1718 C.ar    1  UNL1        0.1708
     17 C         144.1605  141.5637  158.5388 C.ar    1  UNL1        0.0411
     18 C         143.6993  142.9750  158.7522 C.ar    1  UNL1        0.0193
     19 C         142.2478  143.3210  158.5986 C.ar    1  UNL1        0.0765
     20 N         141.2576  142.2557  158.2316 N.ar    1  UNL1       -0.2304
     21 C         141.7189  140.8444  158.0182 C.ar    1  UNL1        0.1682
     22 N         140.7287  139.7792  157.6513 N.am    1  UNL1       -0.2639
     23 H         139.7760  140.0063  157.5505 H       1  UNL1        0.1565
     24 C         140.7853  141.6764  164.8873 C.3     1  UNL1        0.0604
     25 C         140.5283  142.2586  166.2455 C.3     1  UNL1        0.1336
     26 O         139.7009  143.2550  165.4888 O.3     1  UNL1       -0.3806
     27 C         140.0983  143.0491  167.4456 C.3     1  UNL1        0.1402
     28 N         140.7137  142.4196  168.6602 N.ar    1  UNL1       -0.2915
     29 C         140.6409  142.7681  170.1173 C.ar    1  UNL1        0.2611
     30 O         139.8306  143.9477  170.5667 O.2     1  UNL1       -0.2670
     31 C         141.3783  141.9370  171.1249 C.ar    1  UNL1        0.0623
     32 C         142.1885  140.7573  170.6754 C.ar    1  UNL1        0.0255
     33 C         142.2614  140.4089  169.2183 C.ar    1  UNL1        0.0981
     34 N         142.9827  139.3029  168.4925 N.ar    1  UNL1       -0.2302
     35 C         142.9617  139.0777  167.0097 C.ar    1  UNL1        0.1654
     36 CL        143.7275  137.9336  166.4139 Cl      1  UNL1       -0.0589
     37 C         142.1750  139.9965  166.1226 C.ar    1  UNL1        0.1680
     38 F         142.1540  139.7712  164.6398 F       1  UNL1       -0.2019
     39 C         141.4093  141.1405  166.7184 C.ar    1  UNL1        0.0508
     40 C         141.5239  141.2400  168.2107 C.ar    1  UNL1        0.0807
     41 H         139.3121  143.8905  166.1098 H       1  UNL1        0.2108
@<TRIPOS>BOND
     1    12    13    2
     2    13    14    1
     3    14    15    1
     4    15    16    1
     5    16    17   ar
     6    17    18   ar
     7    18    19   ar
     8    19    11    1
     9    11     9    1
    10     9     1    1
    11     1     2    1
    12     2     3    1
    13     3     4    1
    14     4    24    1
    15    24    25    1
    16    25    26    1
    17    25    27    1
    18    27    28    1
    19    28    29   ar
    20    29    30    2
    21    29    31   ar
    22    31    32   ar
    23    32    33   ar
    24    33    34   ar
    25    34    35   ar
    26    35    36    1
    27    35    37   ar
    28    37    38    1
    29    37    39   ar
    30    39    40   ar
    31     4     5    1
    32     5     6    1
    33     4     7    1
    34     7     8    1
    35    19    20   ar
    36    20    21   ar
    37    21    22    1
    38    22    13   am
    39    21    16   ar
    40     6     1    1
    41     8     1    1
    42    39    25    1
    43    40    28   ar
    44    40    33   ar
    45     9    10    1
    46    26    41    1
    47    22    23    1
@<TRIPOS>MOLECULE
*****
 41 47 0 0 0
SMALL
GASTEIGER

@<TRIPOS>ATOM
      1 C         141.8386  144.4253  161.8185 C.3     1  UNL1        0.0700
      2 C         140.9323  144.4743  163.0128 C.3     1  UNL1        0.0193
      3 C         141.0810  143.4615  164.1092 C.3     1  UNL1        0.0287
      4 C         142.1361  142.3996  164.0114 C.3     1  UNL1        0.0955
      5 C         143.0424  142.3506  162.8171 C.3     1  UNL1        0.0287
      6 C         142.8936  143.3635  161.7207 C.3     1  UNL1        0.0193
      7 O         142.0927  142.9330  163.3856 O.3     1  UNL1       -0.3571
      8 C         141.9582  143.8487  162.3942 C.3     1  UNL1        0.1562
      9 N         141.6899  145.4381  160.7221 N.3     1  UNL1       -0.2926
     10 H         141.6591  146.3541  161.1696 H       1  UNL1        0.1236
     11 C         140.5144  145.3702  159.7929 C.3     1  UNL1        0.1152
     12 O         135.9711  140.1484  156.2093 O.2     1  UNL1       -0.2707
     13 C         137.3315  140.7228  156.4733 C.2     1  UNL1        0.2718
     14 C         138.5377  140.1307  155.8066 C.3     1  UNL1        0.2898
     15 O         139.8981  140.7050  156.0705 O.3     1  UNL1       -0.4628
     16 C         140.0521  141.8713  157.0011 C.ar    1  UNL1        0.1708
     17 C         141.4125  142.4456  157.2651 C.ar    1  UNL1        0.0411
     18 C         141.5665  143.6119  158.1957 C.ar    1  UNL1        0.0193
     19 C         140.3602  144.2039  158.8623 C.ar    1  UNL1        0.0765
     20 N         138.9999  143.6296  158.5984 N.ar    1  UNL1       -0.2304
     21 C         138.8459  142.4633  157.6678 C.ar    1  UNL1        0.1682
     22 N         137.4855  141.8891  157.4039 N.am    1  UNL1       -0.2639
     23 H         136.6938  142.2776  157.8415 H       1  UNL1        0.1565
     24 C         142.2848  141.3868  165.1078 C.3     1  UNL1        0.0604
     25 C         142.4684  141.8386  166.5263 C.3     1  UNL1        0.1336
     26 O         143.6425  142.5882  165.9698 O.3     1  UNL1       -0.3806
     27 C         142.8974  142.4471  167.8285 C.3     1  UNL1        0.1402
     28 N         141.9501  141.9791  168.8932 N.ar    1  UNL1       -0.2915
     29 C         141.8802  142.2545  170.3660 C.ar    1  UNL1        0.2611
     30 O         142.8947  143.1522  171.0102 O.2     1  UNL1       -0.2670
     31 C         140.7958  141.6321  171.1947 C.ar    1  UNL1        0.0623
     32 C         139.7813  140.7344  170.5506 C.ar    1  UNL1        0.0255
     33 C         139.8512  140.4591  169.0777 C.ar    1  UNL1        0.0981
     34 N         138.9850  139.6151  168.1790 N.ar    1  UNL1       -0.2302
     35 C         139.1811  139.4330  166.7031 C.ar    1  UNL1        0.1654
     36 CL        138.2418  138.5612  165.9235 Cl      1  UNL1       -0.0589
     37 C         140.3166  140.1228  166.0067 C.ar    1  UNL1        0.1680
     38 F         140.5128  139.9407  164.5308 F       1  UNL1       -0.2019
     39 C         141.2559  140.9946  166.7862 C.ar    1  UNL1        0.0508
     40 C         140.9356  141.0814  168.2491 C.ar    1  UNL1        0.0807
     41 H         144.0833  143.0747  166.6838 H       1  UNL1        0.2108
@<TRIPOS>BOND
     1    12    13    2
     2    13    14    1
     3    14    15    1
     4    15    16    1
     5    16    17   ar
     6    17    18   ar
     7    18    19   ar
     8    19    11    1
     9    11     9    1
    10     9     1    1
    11     1     2    1
    12     2     3    1
    13     3     4    1
    14     4    24    1
    15    24    25    1
    16    25    26    1
    17    25    27    1
    18    27    28    1
    19    28    29   ar
    20    29    30    2
    21    29    31   ar
    22    31    32   ar
    23    32    33   ar
    24    33    34   ar
    25    34    35   ar
    26    35    36    1
    27    35    37   ar
    28    37    38    1
    29    37    39   ar
    30    39    40   ar
    31     4     5    1
    32     5     6    1
    33     4     7    1
    34     7     8    1
    35    19    20   ar
    36    20    21   ar
    37    21    22    1
    38    22    13   am
    39    21    16   ar
    40     6     1    1
    41     8     1    1
    42    39    25    1
    43    40    28   ar
    44    40    33   ar
    45     9    10    1
    46    26    41    1
    47    22    23    1
