@<TRIPOS>MOLECULE
*****
 39 41 0 0 0
SMALL
GASTEIGER

@<TRIPOS>ATOM
      1 C         141.7497  138.2818  158.8130 C.2     1  UNL1        0.2317
      2 O         142.6112  137.6303  159.8539 O.2     1  UNL1       -0.2744
      3 N         140.4748  138.9630  159.2136 N.am    1  UNL1       -0.2836
      4 H         139.9094  139.3906  158.5305 H       1  UNL1        0.1549
      5 C         140.0614  138.9928  160.6553 C.ar    1  UNL1        0.0503
      6 C         139.0139  138.0424  161.1549 C.ar    1  UNL1        0.0144
      7 C         138.6005  138.0721  162.5964 C.ar    1  UNL1       -0.0002
      8 C         139.2345  139.0523  163.5385 C.ar    1  UNL1        0.0182
      9 C         140.2819  140.0027  163.0389 C.ar    1  UNL1       -0.0002
     10 C         140.6953  139.9729  161.5972 C.ar    1  UNL1        0.0144
     11 C         138.8210  139.0820  164.9800 C.3     1  UNL1        0.2827
     12 O         139.3876  137.7063  165.1709 O.3     1  UNL1       -0.3692
     13 H         139.2576  137.4279  166.0909 H       1  UNL1        0.2112
     14 C         138.4076  139.1117  166.4216 C.3     1  UNL1        0.4311
     15 F         137.9942  139.1414  167.8632 F       1  UNL1       -0.1669
     16 F         139.8482  139.1829  166.8333 F       1  UNL1       -0.1669
     17 F         137.5335  139.0721  166.2841 F       1  UNL1       -0.1669
     18 C         138.2545  140.4577  164.7892 C.3     1  UNL1        0.4311
     19 F         137.6879  141.8334  164.5983 F       1  UNL1       -0.1669
     20 F         137.5999  140.2293  164.2378 F       1  UNL1       -0.1669
     21 F         139.1334  141.3325  165.6330 F       1  UNL1       -0.1669
     22 C         142.1631  138.2520  157.3714 C.3     1  UNL1        0.1233
     23 C         145.6142  140.7759  155.9678 C.ar    1  UNL1        0.1056
     24 C         145.1948  139.5724  155.1769 C.ar    1  UNL1        0.0180
     25 C         144.0444  138.7311  155.6448 C.ar    1  UNL1       -0.0024
     26 C         143.3135  139.0933  156.9035 C.ar    1  UNL1       -0.0118
     27 C         143.7329  140.2968  157.6944 C.ar    1  UNL1       -0.0024
     28 C         144.8833  141.1381  157.2266 C.ar    1  UNL1        0.0180
     29 S         146.7646  141.6172  155.5000 S.O2    1  UNL1        0.0087
     30 O         146.9154  142.1796  156.8823 O.2     1  UNL1       -0.1686
     31 O         146.6137  141.0547  154.1176 O.2     1  UNL1       -0.1686
     32 C         149.3099  141.9083  155.0680 C.3     1  UNL1        0.0276
     33 C         147.9149  142.4585  155.0321 C.3     1  UNL1        0.1560
     34 C         141.4262  137.3809  156.3977 C.3     1  UNL1        0.1409
     35 N         141.8031  135.9366  156.2492 N.ar    1  UNL1       -0.2486
     36 C         142.9320  135.2432  156.9525 C.ar    1  UNL1        0.0967
     37 C         142.9439  133.8102  156.5092 C.ar    1  UNL1        0.0427
     38 C         141.8223  133.6180  155.5319 C.ar    1  UNL1        0.1217
     39 N         141.1172  134.9322  155.3711 N.ar    1  UNL1       -0.1676
@<TRIPOS>BOND
     1    32    33    1
     2    33    29    1
     3    29    30    2
     4    29    31    2
     5    29    23    1
     6    23    24   ar
     7    24    25   ar
     8    25    26   ar
     9    26    22    1
    10    22    34    1
    11    34    35    1
    12    35    36   ar
    13    36    37   ar
    14    37    38   ar
    15    38    39   ar
    16    22     1    1
    17     1     2    2
    18     1     3   am
    19     3     5    1
    20     5     6   ar
    21     6     7   ar
    22     7     8   ar
    23     8    11    1
    24    11    12    1
    25    11    14    1
    26    14    15    1
    27    14    16    1
    28    14    17    1
    29    11    18    1
    30    18    19    1
    31    18    20    1
    32    18    21    1
    33     8     9   ar
    34     9    10   ar
    35    26    27   ar
    36    27    28   ar
    37    28    23   ar
    38    39    35   ar
    39    10     5   ar
    40     3     4    1
    41    12    13    1
@<TRIPOS>MOLECULE
*****
 39 41 0 0 0
SMALL
GASTEIGER

@<TRIPOS>ATOM
      1 C         141.6807  138.3695  158.7221 C.2     1  UNL1        0.2317
      2 O         142.4937  137.6602  159.7643 O.2     1  UNL1       -0.2744
      3 N         140.4257  139.0920  159.1132 N.am    1  UNL1       -0.2836
      4 H         139.8922  139.5575  158.4292 H       1  UNL1        0.1549
      5 C         139.9836  139.1050  160.5466 C.ar    1  UNL1        0.0503
      6 C         140.4919  140.1647  161.4786 C.ar    1  UNL1        0.0144
      7 C         140.0499  140.1779  162.9119 C.ar    1  UNL1       -0.0002
      8 C         139.0994  139.1313  163.4132 C.ar    1  UNL1        0.0182
      9 C         138.5910  138.0716  162.4812 C.ar    1  UNL1       -0.0002
     10 C         139.0332  138.0585  161.0479 C.ar    1  UNL1        0.0144
     11 C         138.6573  139.1444  164.8465 C.3     1  UNL1        0.2827
     12 O         137.8424  140.3760  164.5839 O.3     1  UNL1       -0.3692
     13 H         137.3972  140.6495  165.4011 H       1  UNL1        0.2112
     14 C         138.2152  139.1575  166.2798 C.3     1  UNL1        0.4311
     15 F         137.7732  139.1707  167.7132 F       1  UNL1       -0.1669
     16 F         139.3186  140.1180  166.6113 F       1  UNL1       -0.1669
     17 F         137.5368  138.5956  166.1887 F       1  UNL1       -0.1669
     18 C         139.4722  137.9128  165.1091 C.3     1  UNL1        0.4311
     19 F         140.2873  136.6812  165.3718 F       1  UNL1       -0.1669
     20 F         140.2675  138.3022  165.0844 F       1  UNL1       -0.1669
     21 F         138.4502  136.8234  165.2450 F       1  UNL1       -0.1669
     22 C         142.1229  138.3564  157.2888 C.3     1  UNL1        0.1233
     23 C         145.6205  140.8723  155.9900 C.ar    1  UNL1        0.1056
     24 C         145.1767  139.7130  155.1479 C.ar    1  UNL1        0.0180
     25 C         144.0109  138.8744  155.5808 C.ar    1  UNL1       -0.0024
     26 C         143.2888  139.1950  156.8559 C.ar    1  UNL1       -0.0118
     27 C         143.7326  140.3543  157.6980 C.ar    1  UNL1       -0.0024
     28 C         144.8985  141.1929  157.2650 C.ar    1  UNL1        0.0180
     29 S         146.7864  141.7109  155.5571 S.O2    1  UNL1        0.0087
     30 O         146.8583  142.3180  156.9268 O.2     1  UNL1       -0.1686
     31 O         146.7145  141.1037  154.1873 O.2     1  UNL1       -0.1686
     32 C         148.8609  142.0648  154.0335 C.3     1  UNL1        0.0276
     33 C         147.9523  142.5495  155.1241 C.3     1  UNL1        0.1560
     34 C         141.3991  137.5047  156.2885 C.3     1  UNL1        0.1409
     35 N         141.7448  136.0516  156.1510 N.ar    1  UNL1       -0.2486
     36 C         142.8712  135.3438  156.8441 C.ar    1  UNL1        0.0967
     37 C         142.8474  133.9059  156.4178 C.ar    1  UNL1        0.0427
     38 C         141.7063  133.7249  155.4611 C.ar    1  UNL1        0.1217
     39 N         141.0248  135.0510  155.2962 N.ar    1  UNL1       -0.1676
@<TRIPOS>BOND
     1    32    33    1
     2    33    29    1
     3    29    30    2
     4    29    31    2
     5    29    23    1
     6    23    24   ar
     7    24    25   ar
     8    25    26   ar
     9    26    22    1
    10    22    34    1
    11    34    35    1
    12    35    36   ar
    13    36    37   ar
    14    37    38   ar
    15    38    39   ar
    16    22     1    1
    17     1     2    2
    18     1     3   am
    19     3     5    1
    20     5     6   ar
    21     6     7   ar
    22     7     8   ar
    23     8    11    1
    24    11    12    1
    25    11    14    1
    26    14    15    1
    27    14    16    1
    28    14    17    1
    29    11    18    1
    30    18    19    1
    31    18    20    1
    32    18    21    1
    33     8     9   ar
    34     9    10   ar
    35    26    27   ar
    36    27    28   ar
    37    28    23   ar
    38    39    35   ar
    39    10     5   ar
    40     3     4    1
    41    12    13    1
@<TRIPOS>MOLECULE
*****
 39 41 0 0 0
SMALL
GASTEIGER

@<TRIPOS>ATOM
      1 C         140.7982  141.2934  161.8115 C.2     1  UNL1        0.2317
      2 O         142.1393  141.3690  162.4792 O.2     1  UNL1       -0.2744
      3 N         139.5674  141.0319  162.6282 N.am    1  UNL1       -0.2836
      4 H         138.6872  140.9823  162.1900 H       1  UNL1        0.1549
      5 C         139.6779  140.8460  164.1126 C.ar    1  UNL1        0.0503
      6 C         139.6248  139.4676  164.7018 C.ar    1  UNL1        0.0144
      7 C         139.7352  139.2817  166.1861 C.ar    1  UNL1       -0.0002
      8 C         139.8987  140.4742  167.0813 C.ar    1  UNL1        0.0182
      9 C         139.9518  141.8526  166.4921 C.ar    1  UNL1       -0.0002
     10 C         139.8413  142.0385  165.0077 C.ar    1  UNL1        0.0144
     11 C         140.0091  140.2882  168.5656 C.3     1  UNL1        0.2827
     12 O         138.6850  139.5835  168.5758 O.3     1  UNL1       -0.3692
     13 H         138.4669  139.3182  169.4829 H       1  UNL1        0.2112
     14 C         140.1195  140.1023  170.0499 C.3     1  UNL1        0.4311
     15 F         140.2298  139.9164  171.5342 F       1  UNL1       -0.1669
     16 F         139.0124  141.0930  170.2563 F       1  UNL1       -0.1669
     17 F         140.7763  139.5083  170.0357 F       1  UNL1       -0.1669
     18 C         141.3331  140.9930  168.5554 C.3     1  UNL1        0.4311
     19 F         142.6572  141.6978  168.5452 F       1  UNL1       -0.1669
     20 F         141.0606  141.7404  168.9447 F       1  UNL1       -0.1669
     21 F         142.2625  140.0102  167.9071 F       1  UNL1       -0.1669
     22 C         140.6878  141.4793  160.3272 C.3     1  UNL1        0.1233
     23 C         141.6715  138.0748  157.5539 C.ar    1  UNL1        0.1056
     24 C         142.7543  138.7106  158.3744 C.ar    1  UNL1        0.0180
     25 C         142.4264  139.8454  159.2988 C.ar    1  UNL1       -0.0024
     26 C         141.0157  140.3445  159.4028 C.ar    1  UNL1       -0.0118
     27 C         139.9329  139.7087  158.5822 C.ar    1  UNL1       -0.0024
     28 C         140.2608  138.5738  157.6578 C.ar    1  UNL1        0.0180
     29 S         141.9994  136.9399  156.6294 S.O2    1  UNL1        0.0087
     30 O         143.4593  137.1247  156.9204 O.2     1  UNL1       -0.1686
     31 O         140.5395  136.7551  156.3385 O.2     1  UNL1       -0.1686
     32 C         143.7577  135.4232  155.4642 C.3     1  UNL1        0.0276
     33 C         142.3273  135.8051  155.7050 C.3     1  UNL1        0.1560
     34 C         140.2495  142.8001  159.7673 C.3     1  UNL1        0.1409
     35 N         139.9360  143.9394  160.6912 N.ar    1  UNL1       -0.2486
     36 C         140.6722  145.2443  160.7634 C.ar    1  UNL1        0.0967
     37 C         140.0223  146.0853  161.8219 C.ar    1  UNL1        0.0427
     38 C         138.8844  145.3002  162.4039 C.ar    1  UNL1        0.1217
     39 N         138.8310  143.9739  161.7051 N.ar    1  UNL1       -0.1676
@<TRIPOS>BOND
     1    32    33    1
     2    33    29    1
     3    29    30    2
     4    29    31    2
     5    29    23    1
     6    23    24   ar
     7    24    25   ar
     8    25    26   ar
     9    26    22    1
    10    22    34    1
    11    34    35    1
    12    35    36   ar
    13    36    37   ar
    14    37    38   ar
    15    38    39   ar
    16    22     1    1
    17     1     2    2
    18     1     3   am
    19     3     5    1
    20     5     6   ar
    21     6     7   ar
    22     7     8   ar
    23     8    11    1
    24    11    12    1
    25    11    14    1
    26    14    15    1
    27    14    16    1
    28    14    17    1
    29    11    18    1
    30    18    19    1
    31    18    20    1
    32    18    21    1
    33     8     9   ar
    34     9    10   ar
    35    26    27   ar
    36    27    28   ar
    37    28    23   ar
    38    39    35   ar
    39    10     5   ar
    40     3     4    1
    41    12    13    1
@<TRIPOS>MOLECULE
*****
 39 41 0 0 0
SMALL
GASTEIGER

@<TRIPOS>ATOM
      1 C         141.1697  139.1887  159.0896 C.2     1  UNL1        0.2317
      2 O         141.6413  140.3547  159.9071 O.2     1  UNL1       -0.2744
      3 N         140.2641  138.1612  159.7013 N.am    1  UNL1       -0.2836
      4 H         139.9546  137.3960  159.1647 H       1  UNL1        0.1549
      5 C         139.8301  138.2997  161.1304 C.ar    1  UNL1        0.0503
      6 C         138.5516  139.0116  161.4604 C.ar    1  UNL1        0.0144
      7 C         138.1176  139.1501  162.8895 C.ar    1  UNL1       -0.0002
      8 C         138.9620  138.5767  163.9887 C.ar    1  UNL1        0.0182
      9 C         140.2404  137.8648  163.6588 C.ar    1  UNL1       -0.0002
     10 C         140.6744  137.7263  162.2296 C.ar    1  UNL1        0.0144
     11 C         138.5279  138.7152  165.4178 C.3     1  UNL1        0.2827
     12 O         138.5527  137.2231  165.5699 O.3     1  UNL1       -0.3692
     13 H         138.2934  136.9860  166.4741 H       1  UNL1        0.2112
     14 C         138.0939  138.8537  166.8469 C.3     1  UNL1        0.4311
     15 F         137.6598  138.9922  168.2761 F       1  UNL1       -0.1669
     16 F         139.4451  139.3977  167.2046 F       1  UNL1       -0.1669
     17 F         137.2707  138.5448  166.7402 F       1  UNL1       -0.1669
     18 C         138.5031  140.2072  165.2657 C.3     1  UNL1        0.4311
     19 F         138.4783  141.6993  165.1136 F       1  UNL1       -0.1669
     20 F         137.6294  140.3116  165.3673 F       1  UNL1       -0.1669
     21 F         139.9405  140.5733  165.0426 F       1  UNL1       -0.1669
     22 C         141.6038  139.0503  157.6605 C.3     1  UNL1        0.1233
     23 C         142.0258  134.9644  155.8228 C.ar    1  UNL1        0.1056
     24 C         143.0405  135.4487  156.8156 C.ar    1  UNL1        0.0180
     25 C         142.8998  136.8106  157.4282 C.ar    1  UNL1       -0.0024
     26 C         141.7444  137.6883  157.0479 C.ar    1  UNL1       -0.0118
     27 C         140.7297  137.2040  156.0551 C.ar    1  UNL1       -0.0024
     28 C         140.8704  135.8421  155.4425 C.ar    1  UNL1        0.0180
     29 S         142.1665  133.6024  155.2102 S.O2    1  UNL1        0.0087
     30 O         142.1880  132.9890  156.5789 O.2     1  UNL1       -0.1686
     31 O         142.1450  134.2158  153.8415 O.2     1  UNL1       -0.1686
     32 C         141.6162  131.0633  155.2197 C.3     1  UNL1        0.0276
     33 C         142.3071  132.2404  154.5977 C.3     1  UNL1        0.1560
     34 C         141.8971  140.2739  156.8439 C.3     1  UNL1        0.1409
     35 N         143.2993  140.7995  156.7576 N.ar    1  UNL1       -0.2486
     36 C         143.7179  142.2286  156.9381 C.ar    1  UNL1        0.0967
     37 C         145.2064  142.3007  156.7677 C.ar    1  UNL1        0.0427
     38 C         145.7079  140.9162  156.4821 C.ar    1  UNL1        0.1217
     39 N         144.5293  139.9884  156.4758 N.ar    1  UNL1       -0.1676
@<TRIPOS>BOND
     1    32    33    1
     2    33    29    1
     3    29    30    2
     4    29    31    2
     5    29    23    1
     6    23    24   ar
     7    24    25   ar
     8    25    26   ar
     9    26    22    1
    10    22    34    1
    11    34    35    1
    12    35    36   ar
    13    36    37   ar
    14    37    38   ar
    15    38    39   ar
    16    22     1    1
    17     1     2    2
    18     1     3   am
    19     3     5    1
    20     5     6   ar
    21     6     7   ar
    22     7     8   ar
    23     8    11    1
    24    11    12    1
    25    11    14    1
    26    14    15    1
    27    14    16    1
    28    14    17    1
    29    11    18    1
    30    18    19    1
    31    18    20    1
    32    18    21    1
    33     8     9   ar
    34     9    10   ar
    35    26    27   ar
    36    27    28   ar
    37    28    23   ar
    38    39    35   ar
    39    10     5   ar
    40     3     4    1
    41    12    13    1
@<TRIPOS>MOLECULE
*****
 39 41 0 0 0
SMALL
GASTEIGER

@<TRIPOS>ATOM
      1 C         139.3376  140.1516  157.5230 C.2     1  UNL1        0.2317
      2 O         140.4834  141.0825  157.7890 O.2     1  UNL1       -0.2744
      3 N         138.1941  140.0739  158.4907 N.am    1  UNL1       -0.2836
      4 H         137.4421  139.4630  158.3161 H       1  UNL1        0.1549
      5 C         138.1965  140.9271  159.7245 C.ar    1  UNL1        0.0503
      6 C         138.6966  142.3398  159.6585 C.ar    1  UNL1        0.0144
      7 C         138.6990  143.1929  160.8922 C.ar    1  UNL1       -0.0002
      8 C         138.2013  142.6335  162.1919 C.ar    1  UNL1        0.0182
      9 C         137.7011  141.2209  162.2579 C.ar    1  UNL1       -0.0002
     10 C         137.6988  140.3677  161.0242 C.ar    1  UNL1        0.0144
     11 C         138.2037  143.4867  163.4256 C.3     1  UNL1        0.2827
     12 O         137.3635  144.5095  162.7199 O.3     1  UNL1       -0.3692
     13 H         137.1839  145.2501  163.3200 H       1  UNL1        0.2112
     14 C         138.2060  144.3399  164.6593 C.3     1  UNL1        0.4311
     15 F         138.2085  145.1931  165.8931 F       1  UNL1       -0.1669
     16 F         139.5384  144.9053  164.2657 F       1  UNL1       -0.1669
     17 F         137.4253  144.0700  164.9788 F       1  UNL1       -0.1669
     18 C         139.0438  142.4639  164.1313 C.3     1  UNL1        0.4311
     19 F         139.8840  141.4411  164.8371 F       1  UNL1       -0.1669
     20 F         139.8005  142.6312  163.7024 F       1  UNL1       -0.1669
     21 F         138.0945  141.8176  165.0963 F       1  UNL1       -0.1669
     22 C         139.3353  139.2985  156.2892 C.3     1  UNL1        0.1233
     23 C         141.9158  135.6170  156.0945 C.ar    1  UNL1        0.1056
     24 C         142.2643  136.7280  157.0401 C.ar    1  UNL1        0.0180
     25 C         141.4041  137.9552  157.1050 C.ar    1  UNL1       -0.0024
     26 C         140.1954  138.0713  156.2243 C.ar    1  UNL1       -0.0118
     27 C         139.8469  136.9603  155.2788 C.ar    1  UNL1       -0.0024
     28 C         140.7071  135.7332  155.2138 C.ar    1  UNL1        0.0180
     29 S         142.7759  134.3899  156.0296 S.O2    1  UNL1        0.0087
     30 O         143.9824  135.2181  156.3591 O.2     1  UNL1       -0.1686
     31 O         141.5695  133.5617  155.7000 O.2     1  UNL1       -0.1686
     32 C         143.4072  132.1424  154.8893 C.3     1  UNL1        0.0276
     33 C         143.6361  133.1627  155.9647 C.3     1  UNL1        0.1560
     34 C         138.4728  139.6725  155.1204 C.3     1  UNL1        0.1409
     35 N         136.9925  139.8333  155.3017 N.ar    1  UNL1       -0.2486
     36 C         135.9267  139.1932  154.4624 C.ar    1  UNL1        0.0967
     37 C         134.5936  139.6267  154.9961 C.ar    1  UNL1        0.0427
     38 C         134.8354  140.5348  156.1653 C.ar    1  UNL1        0.1217
     39 N         136.3180  140.6625  156.3542 N.ar    1  UNL1       -0.1676
@<TRIPOS>BOND
     1    32    33    1
     2    33    29    1
     3    29    30    2
     4    29    31    2
     5    29    23    1
     6    23    24   ar
     7    24    25   ar
     8    25    26   ar
     9    26    22    1
    10    22    34    1
    11    34    35    1
    12    35    36   ar
    13    36    37   ar
    14    37    38   ar
    15    38    39   ar
    16    22     1    1
    17     1     2    2
    18     1     3   am
    19     3     5    1
    20     5     6   ar
    21     6     7   ar
    22     7     8   ar
    23     8    11    1
    24    11    12    1
    25    11    14    1
    26    14    15    1
    27    14    16    1
    28    14    17    1
    29    11    18    1
    30    18    19    1
    31    18    20    1
    32    18    21    1
    33     8     9   ar
    34     9    10   ar
    35    26    27   ar
    36    27    28   ar
    37    28    23   ar
    38    39    35   ar
    39    10     5   ar
    40     3     4    1
    41    12    13    1
@<TRIPOS>MOLECULE
*****
 39 41 0 0 0
SMALL
GASTEIGER

@<TRIPOS>ATOM
      1 C         140.7086  138.3969  157.1022 C.2     1  UNL1        0.2317
      2 O         141.7905  139.2773  157.6541 O.2     1  UNL1       -0.2744
      3 N         139.3551  138.3774  157.7484 N.am    1  UNL1       -0.2836
      4 H         138.6450  137.7996  157.3862 H       1  UNL1        0.1549
      5 C         139.0835  139.2382  158.9465 C.ar    1  UNL1        0.0503
      6 C         139.1326  138.6445  160.3231 C.ar    1  UNL1        0.0144
      7 C         138.8610  139.5052  161.5212 C.ar    1  UNL1       -0.0002
      8 C         138.5402  140.9596  161.3426 C.ar    1  UNL1        0.0182
      9 C         138.4911  141.5533  159.9660 C.ar    1  UNL1       -0.0002
     10 C         138.7627  140.6925  158.7679 C.ar    1  UNL1        0.0144
     11 C         138.2686  141.8203  162.5407 C.3     1  UNL1        0.2827
     12 O         136.8624  141.3013  162.5948 O.3     1  UNL1       -0.3692
     13 H         136.3937  141.7141  163.3369 H       1  UNL1        0.2112
     14 C         137.9970  142.6810  163.7387 C.3     1  UNL1        0.4311
     15 F         137.7254  143.5418  164.9368 F       1  UNL1       -0.1669
     16 F         137.2184  143.6321  162.8790 F       1  UNL1       -0.1669
     17 F         138.4338  142.1856  164.3289 F       1  UNL1       -0.1669
     18 C         139.6749  142.3394  162.4865 C.3     1  UNL1        0.4311
     19 F         141.0812  142.8585  162.4324 F       1  UNL1       -0.1669
     20 F         140.0724  141.6055  162.7831 F       1  UNL1       -0.1669
     21 F         139.5248  143.7418  161.9760 F       1  UNL1       -0.1669
     22 C         140.9803  137.5362  155.9042 C.3     1  UNL1        0.1233
     23 C         143.0198  133.5568  156.4085 C.ar    1  UNL1        0.1056
     24 C         141.8244  133.6784  155.5107 C.ar    1  UNL1        0.0180
     25 C         141.1445  135.0049  155.3426 C.ar    1  UNL1       -0.0024
     26 C         141.6601  136.2097  156.0723 C.ar    1  UNL1       -0.0118
     27 C         142.8556  136.0881  156.9701 C.ar    1  UNL1       -0.0024
     28 C         143.5354  134.7616  157.1382 C.ar    1  UNL1        0.0180
     29 S         143.6997  132.2303  156.5766 S.O2    1  UNL1        0.0087
     30 O         144.3518  132.7239  157.8341 O.2     1  UNL1       -0.1686
     31 O         143.0476  131.7367  155.3192 O.2     1  UNL1       -0.1686
     32 C         144.7189  130.4036  158.1175 C.3     1  UNL1        0.0276
     33 C         144.3795  130.9038  156.7447 C.3     1  UNL1        0.1560
     34 C         140.5721  138.0020  154.5380 C.3     1  UNL1        0.1409
     35 N         139.1346  137.9225  154.1170 N.ar    1  UNL1       -0.2486
     36 C         138.6135  138.0995  152.7216 C.ar    1  UNL1        0.0967
     37 C         137.1226  137.9384  152.7596 C.ar    1  UNL1        0.0427
     38 C         136.7223  137.6619  154.1784 C.ar    1  UNL1        0.1217
     39 N         137.9657  137.6520  155.0174 N.ar    1  UNL1       -0.1676
@<TRIPOS>BOND
     1    32    33    1
     2    33    29    1
     3    29    30    2
     4    29    31    2
     5    29    23    1
     6    23    24   ar
     7    24    25   ar
     8    25    26   ar
     9    26    22    1
    10    22    34    1
    11    34    35    1
    12    35    36   ar
    13    36    37   ar
    14    37    38   ar
    15    38    39   ar
    16    22     1    1
    17     1     2    2
    18     1     3   am
    19     3     5    1
    20     5     6   ar
    21     6     7   ar
    22     7     8   ar
    23     8    11    1
    24    11    12    1
    25    11    14    1
    26    14    15    1
    27    14    16    1
    28    14    17    1
    29    11    18    1
    30    18    19    1
    31    18    20    1
    32    18    21    1
    33     8     9   ar
    34     9    10   ar
    35    26    27   ar
    36    27    28   ar
    37    28    23   ar
    38    39    35   ar
    39    10     5   ar
    40     3     4    1
    41    12    13    1
@<TRIPOS>MOLECULE
*****
 39 41 0 0 0
SMALL
GASTEIGER

@<TRIPOS>ATOM
      1 C         141.7608  138.2678  158.8387 C.2     1  UNL1        0.2317
      2 O         142.6365  137.6492  159.8878 O.2     1  UNL1       -0.2744
      3 N         140.4692  138.9223  159.2304 N.am    1  UNL1       -0.2836
      4 H         139.8944  139.3283  158.5419 H       1  UNL1        0.1549
      5 C         140.0533  138.9582  160.6712 C.ar    1  UNL1        0.0503
      6 C         140.6737  139.9535  161.6063 C.ar    1  UNL1        0.0144
      7 C         140.2579  139.9894  163.0471 C.ar    1  UNL1       -0.0002
      8 C         139.2216  139.0300  163.5528 C.ar    1  UNL1        0.0182
      9 C         138.6012  138.0347  162.6176 C.ar    1  UNL1       -0.0002
     10 C         139.0170  137.9988  161.1768 C.ar    1  UNL1        0.0144
     11 C         138.8057  139.0659  164.9935 C.3     1  UNL1        0.2827
     12 O         139.3588  137.6852  165.1875 O.3     1  UNL1       -0.3692
     13 H         139.2245  137.4094  166.1078 H       1  UNL1        0.2112
     14 C         138.3899  139.1018  166.4342 C.3     1  UNL1        0.4311
     15 F         137.9741  139.1377  167.8750 F       1  UNL1       -0.1669
     16 F         139.8294  139.1848  166.8476 F       1  UNL1       -0.1669
     17 F         137.5164  139.0557  166.2957 F       1  UNL1       -0.1669
     18 C         138.2527  140.4466  164.7994 C.3     1  UNL1        0.4311
     19 F         137.6995  141.8273  164.6054 F       1  UNL1       -0.1669
     20 F         137.6015  140.2246  164.2415 F       1  UNL1       -0.1669
     21 F         139.1308  141.3127  165.6530 F       1  UNL1       -0.1669
     22 C         142.1767  138.2319  157.3980 C.3     1  UNL1        0.1233
     23 C         145.5872  140.8002  155.9760 C.ar    1  UNL1        0.1056
     24 C         145.1778  139.5925  155.1862 C.ar    1  UNL1        0.0180
     25 C         144.0409  138.7364  155.6602 C.ar    1  UNL1       -0.0024
     26 C         143.3135  139.0880  156.9240 C.ar    1  UNL1       -0.0118
     27 C         143.7229  140.2958  157.7137 C.ar    1  UNL1       -0.0024
     28 C         144.8597  141.1519  157.2397 C.ar    1  UNL1        0.0180
     29 S         146.7240  141.6563  155.5019 S.O2    1  UNL1        0.0087
     30 O         146.8478  142.2513  156.8733 O.2     1  UNL1       -0.1686
     31 O         146.6002  141.0614  154.1306 O.2     1  UNL1       -0.1686
     32 C         148.5779  142.1700  153.7557 C.3     1  UNL1        0.0276
     33 C         147.8609  142.5124  155.0279 C.3     1  UNL1        0.1560
     34 C         141.4557  137.3399  156.4313 C.3     1  UNL1        0.1409
     35 N         140.2883  137.8677  155.6512 N.ar    1  UNL1       -0.2486
     36 C         140.1377  137.8352  154.1592 C.ar    1  UNL1        0.0967
     37 C         138.8228  138.4681  153.8120 C.ar    1  UNL1        0.0427
     38 C         138.1607  138.8917  155.0895 C.ar    1  UNL1        0.1217
     39 N         139.0663  138.5207  156.2263 N.ar    1  UNL1       -0.1676
@<TRIPOS>BOND
     1    32    33    1
     2    33    29    1
     3    29    30    2
     4    29    31    2
     5    29    23    1
     6    23    24   ar
     7    24    25   ar
     8    25    26   ar
     9    26    22    1
    10    22    34    1
    11    34    35    1
    12    35    36   ar
    13    36    37   ar
    14    37    38   ar
    15    38    39   ar
    16    22     1    1
    17     1     2    2
    18     1     3   am
    19     3     5    1
    20     5     6   ar
    21     6     7   ar
    22     7     8   ar
    23     8    11    1
    24    11    12    1
    25    11    14    1
    26    14    15    1
    27    14    16    1
    28    14    17    1
    29    11    18    1
    30    18    19    1
    31    18    20    1
    32    18    21    1
    33     8     9   ar
    34     9    10   ar
    35    26    27   ar
    36    27    28   ar
    37    28    23   ar
    38    39    35   ar
    39    10     5   ar
    40     3     4    1
    41    12    13    1
@<TRIPOS>MOLECULE
*****
 39 41 0 0 0
SMALL
GASTEIGER

@<TRIPOS>ATOM
      1 C         140.3952  140.8667  162.3679 C.2     1  UNL1        0.2317
      2 O         141.6281  140.0716  162.6808 O.2     1  UNL1       -0.2744
      3 N         139.6082  141.4981  163.4778 N.am    1  UNL1       -0.2836
      4 H         138.7990  142.0199  163.2725 H       1  UNL1        0.1549
      5 C         140.0541  141.3343  164.9007 C.ar    1  UNL1        0.0503
      6 C         139.6900  140.0947  165.6628 C.ar    1  UNL1        0.0144
      7 C         140.1358  139.9309  167.0856 C.ar    1  UNL1       -0.0002
      8 C         140.9459  141.0068  167.7463 C.ar    1  UNL1        0.0182
      9 C         141.3100  142.2464  166.9842 C.ar    1  UNL1       -0.0002
     10 C         140.8641  142.4101  165.5614 C.ar    1  UNL1        0.0144
     11 C         141.3917  140.8430  169.1691 C.3     1  UNL1        0.2827
     12 O         142.8196  140.7788  168.7143 O.3     1  UNL1       -0.3692
     13 H         143.3992  140.6651  169.4837 H       1  UNL1        0.2112
     14 C         141.8376  140.6792  170.5919 C.3     1  UNL1        0.4311
     15 F         142.2835  140.5153  172.0147 F       1  UNL1       -0.1669
     16 F         142.2552  139.2687  170.2986 F       1  UNL1       -0.1669
     17 F         141.6249  141.4940  170.8662 F       1  UNL1       -0.1669
     18 C         139.9638  140.9072  169.6240 C.3     1  UNL1        0.4311
     19 F         138.5358  140.9713  170.0788 F       1  UNL1       -0.1669
     20 F         139.8703  140.0458  169.8080 F       1  UNL1       -0.1669
     21 F         139.6029  142.3563  169.4835 F       1  UNL1       -0.1669
     22 C         139.9494  141.0304  160.9451 C.3     1  UNL1        0.1233
     23 C         141.4934  138.2422  157.7683 C.ar    1  UNL1        0.1056
     24 C         140.0679  138.1436  158.2245 C.ar    1  UNL1        0.0180
     25 C         139.5532  139.0730  159.2834 C.ar    1  UNL1       -0.0024
     26 C         140.4641  140.1010  159.8862 C.ar    1  UNL1       -0.0118
     27 C         141.8896  140.1997  159.4300 C.ar    1  UNL1       -0.0024
     28 C         142.4043  139.2703  158.3711 C.ar    1  UNL1        0.0180
     29 S         142.0081  137.3128  156.7094 S.O2    1  UNL1        0.0087
     30 O         143.4170  137.6652  157.0849 O.2     1  UNL1       -0.1686
     31 O         140.5993  136.9604  156.3339 O.2     1  UNL1       -0.1686
     32 C         143.9952  136.1230  155.5324 C.3     1  UNL1        0.0276
     33 C         142.5228  136.3834  155.6505 C.3     1  UNL1        0.1560
     34 C         138.9889  142.1236  160.5812 C.3     1  UNL1        0.1409
     35 N         139.3838  143.5595  160.7607 N.ar    1  UNL1       -0.2486
     36 C         140.1889  144.3796  159.7968 C.ar    1  UNL1        0.0967
     37 C         140.3456  145.7544  160.3759 C.ar    1  UNL1        0.0427
     38 C         139.6373  145.7839  161.6978 C.ar    1  UNL1        0.1217
     39 N         139.0428  144.4274  161.9357 N.ar    1  UNL1       -0.1676
@<TRIPOS>BOND
     1    32    33    1
     2    33    29    1
     3    29    30    2
     4    29    31    2
     5    29    23    1
     6    23    24   ar
     7    24    25   ar
     8    25    26   ar
     9    26    22    1
    10    22    34    1
    11    34    35    1
    12    35    36   ar
    13    36    37   ar
    14    37    38   ar
    15    38    39   ar
    16    22     1    1
    17     1     2    2
    18     1     3   am
    19     3     5    1
    20     5     6   ar
    21     6     7   ar
    22     7     8   ar
    23     8    11    1
    24    11    12    1
    25    11    14    1
    26    14    15    1
    27    14    16    1
    28    14    17    1
    29    11    18    1
    30    18    19    1
    31    18    20    1
    32    18    21    1
    33     8     9   ar
    34     9    10   ar
    35    26    27   ar
    36    27    28   ar
    37    28    23   ar
    38    39    35   ar
    39    10     5   ar
    40     3     4    1
    41    12    13    1
@<TRIPOS>MOLECULE
*****
 39 41 0 0 0
SMALL
GASTEIGER

@<TRIPOS>ATOM
      1 C         141.9601  140.6176  161.2220 C.2     1  UNL1        0.2317
      2 O         141.7248  141.9614  161.8457 O.2     1  UNL1       -0.2744
      3 N         142.2708  139.4329  162.0880 N.am    1  UNL1       -0.2836
      4 H         142.4253  138.5509  161.6787 H       1  UNL1        0.1549
      5 C         142.3463  139.5920  163.5777 C.ar    1  UNL1        0.0503
      6 C         143.4969  140.3297  164.1958 C.ar    1  UNL1        0.0144
      7 C         143.5724  140.4888  165.6854 C.ar    1  UNL1       -0.0002
      8 C         142.4973  139.9102  166.5569 C.ar    1  UNL1        0.0182
      9 C         141.3468  139.1725  165.9388 C.ar    1  UNL1       -0.0002
     10 C         141.2713  139.0134  164.4492 C.ar    1  UNL1        0.0144
     11 C         142.5728  140.0693  168.0465 C.3     1  UNL1        0.2827
     12 O         143.1966  138.7099  168.1601 O.3     1  UNL1       -0.3692
     13 H         143.3771  138.5139  169.0928 H       1  UNL1        0.2112
     14 C         142.6483  140.2284  169.5361 C.3     1  UNL1        0.4311
     15 F         142.7238  140.3875  171.0258 F       1  UNL1       -0.1669
     16 F         141.4494  139.3407  169.6917 F       1  UNL1       -0.1669
     17 F         143.3564  140.7602  169.5522 F       1  UNL1       -0.1669
     18 C         141.9490  141.4287  167.9330 C.3     1  UNL1        0.4311
     19 F         141.3252  142.7881  167.8194 F       1  UNL1       -0.1669
     20 F         141.1052  141.1654  167.9899 F       1  UNL1       -0.1669
     21 F         143.1206  142.3556  167.7976 F       1  UNL1       -0.1669
     22 C         141.8846  140.4585  159.7324 C.3     1  UNL1        0.1233
     23 C         145.3685  141.6805  157.1597 C.ar    1  UNL1        0.1056
     24 C         145.0023  142.4971  158.3634 C.ar    1  UNL1        0.0180
     25 C         143.8410  142.0898  159.2210 C.ar    1  UNL1       -0.0024
     26 C         143.0459  140.8659  158.8748 C.ar    1  UNL1       -0.0118
     27 C         143.4122  140.0493  157.6711 C.ar    1  UNL1       -0.0024
     28 C         144.5735  140.4566  156.8136 C.ar    1  UNL1        0.0180
     29 S         146.5299  142.0879  156.3021 S.O2    1  UNL1        0.0087
     30 O         145.9342  141.3455  155.1428 O.2     1  UNL1       -0.1686
     31 O         147.1256  142.8303  157.4614 O.2     1  UNL1       -0.1686
     32 C         149.0044  141.7818  155.5723 C.3     1  UNL1        0.0276
     33 C         147.6912  142.4952  155.4445 C.3     1  UNL1        0.1560
     34 C         140.6478  139.8921  159.1004 C.3     1  UNL1        0.1409
     35 N         139.4827  139.4941  159.9571 N.ar    1  UNL1       -0.2486
     36 C         138.1533  140.1865  160.0147 C.ar    1  UNL1        0.0967
     37 C         137.2914  139.4540  160.9999 C.ar    1  UNL1        0.0427
     38 C         138.0881  138.3089  161.5512 C.ar    1  UNL1        0.1217
     39 N         139.4424  138.3335  160.9068 N.ar    1  UNL1       -0.1676
@<TRIPOS>BOND
     1    32    33    1
     2    33    29    1
     3    29    30    2
     4    29    31    2
     5    29    23    1
     6    23    24   ar
     7    24    25   ar
     8    25    26   ar
     9    26    22    1
    10    22    34    1
    11    34    35    1
    12    35    36   ar
    13    36    37   ar
    14    37    38   ar
    15    38    39   ar
    16    22     1    1
    17     1     2    2
    18     1     3   am
    19     3     5    1
    20     5     6   ar
    21     6     7   ar
    22     7     8   ar
    23     8    11    1
    24    11    12    1
    25    11    14    1
    26    14    15    1
    27    14    16    1
    28    14    17    1
    29    11    18    1
    30    18    19    1
    31    18    20    1
    32    18    21    1
    33     8     9   ar
    34     9    10   ar
    35    26    27   ar
    36    27    28   ar
    37    28    23   ar
    38    39    35   ar
    39    10     5   ar
    40     3     4    1
    41    12    13    1
