@<TRIPOS>MOLECULE
*****
 31 35 0 0 0
SMALL
GASTEIGER

@<TRIPOS>ATOM
      1 C         140.6000  138.9728  164.2122 C.ar    1  UNL1        0.1028
      2 C         140.9444  137.5574  163.8541 C.ar    1  UNL1        0.0131
      3 C         141.4441  137.2324  162.4775 C.ar    1  UNL1       -0.0015
      4 C         141.7113  138.0921  161.2294 C.ar    1  UNL1        0.0035
      5 C         141.2030  138.8649  162.4103 C.ar    1  UNL1        0.0358
      6 C         140.7554  140.0631  163.1937 C.ar    1  UNL1        0.1545
      7 O         140.4365  141.5043  163.4607 O.3     1  UNL1       -0.4528
      8 C         140.2949  142.9691  163.1703 C.ar    1  UNL1        0.1451
      9 C         139.8076  143.9739  164.1718 C.ar    1  UNL1        0.0375
     10 C         139.6984  145.4205  163.7906 C.ar    1  UNL1        0.0029
     11 C         140.0766  145.8623  162.4079 C.ar    1  UNL1       -0.0024
     12 C         140.5639  144.8576  161.4065 C.ar    1  UNL1        0.0007
     13 C         140.6731  143.4110  161.7877 C.ar    1  UNL1        0.0349
     14 C         140.9995  145.4561  159.7696 C.3     1  UNL1        0.1203
     15 N         141.4910  145.2265  158.3711 N.am    1  UNL1       -0.2743
     16 C         141.7893  145.9529  157.0931 C.3     1  UNL1        0.0957
     17 C         142.2767  144.9481  156.0917 C.3     1  UNL1        0.0466
     18 C         142.4469  143.2554  156.4068 C.3     1  UNL1        0.1337
     19 N         142.7658  141.8143  156.1399 N.3     1  UNL1       -0.2863
     20 C         142.9074  140.3494  156.4302 C.3     1  UNL1        0.1151
     21 C         142.8502  139.0840  157.2336 C.ar    1  UNL1        0.0739
     22 C         143.3523  138.2145  156.1194 C.ar    1  UNL1        0.1147
     23 N         143.4153  136.8036  156.6250 N.ar    1  UNL1       -0.2226
     24 C         142.9520  136.8013  158.0516 C.ar    1  UNL1        0.1786
     25 N         142.6027  138.2108  158.4278 N.ar    1  UNL1       -0.3070
     26 C         142.2028  137.8624  159.8310 C.3     1  UNL1        0.1341
     27 C         141.9993  144.4536  157.1902 C.2     1  UNL1        0.2402
     28 O         142.0167  145.1451  156.7939 O.2     1  UNL1       -0.2734
     29 H         143.7271  141.9642  155.8336 H       1  UNL1        0.1240
     30 N         139.6006  139.6228  166.9651 N.1     1  UNL1       -0.1907
     31 C         140.1003  139.2978  165.5886 C.1     1  UNL1        0.1035
@<TRIPOS>BOND
     1    30    31    3
     2    31     1    1
     3     1     2   ar
     4     2     3   ar
     5     3     4   ar
     6     4     5   ar
     7     5     6   ar
     8     6     7    1
     9     7     8    1
    10     8     9   ar
    11     9    10   ar
    12    10    11   ar
    13    11    12   ar
    14    12    13   ar
    15    12    14    1
    16    14    15    1
    17    15    16    1
    18    16    17    1
    19    18    17    1
    20    18    19    1
    21    19    20    1
    22    20    21    1
    23    21    22   ar
    24    22    23   ar
    25    23    24   ar
    26    24    25   ar
    27    25    26    1
    28    18    27    1
    29    27    28    2
    30     6     1   ar
    31    13     8   ar
    32    27    15   am
    33    26     4    1
    34    25    21   ar
    35    19    29    1
@<TRIPOS>MOLECULE
*****
 31 35 0 0 0
SMALL
GASTEIGER

@<TRIPOS>ATOM
      1 C         140.0850  144.5769  156.3851 C.ar    1  UNL1        0.1028
      2 C         140.2173  143.8412  155.0847 C.ar    1  UNL1        0.0131
      3 C         140.7006  142.4213  155.0720 C.ar    1  UNL1       -0.0015
      4 C         141.1332  141.4514  156.1858 C.ar    1  UNL1        0.0035
      5 C         140.7161  142.8055  156.6782 C.ar    1  UNL1        0.0358
      6 C         140.4360  143.8926  157.6730 C.ar    1  UNL1        0.1545
      7 O         140.3355  144.5472  159.0189 O.3     1  UNL1       -0.4528
      8 C         140.4300  144.6698  160.5109 C.ar    1  UNL1        0.1451
      9 C         140.0745  145.9143  161.2690 C.ar    1  UNL1        0.0375
     10 C         140.2008  145.9439  162.7633 C.ar    1  UNL1        0.0029
     11 C         140.6826  144.7291  163.4996 C.ar    1  UNL1       -0.0024
     12 C         141.0380  143.4846  162.7414 C.ar    1  UNL1        0.0007
     13 C         140.9117  143.4549  161.2471 C.ar    1  UNL1        0.0349
     14 C         141.6079  142.0672  163.6866 C.3     1  UNL1        0.1203
     15 N         142.0985  140.6521  163.7718 N.am    1  UNL1       -0.2743
     16 C         142.5423  139.6168  164.7623 C.3     1  UNL1        0.0957
     17 C         142.8977  138.3723  164.0041 C.3     1  UNL1        0.0466
     18 C         142.7957  138.2109  162.2845 C.3     1  UNL1        0.1337
     19 N         142.8962  137.5563  160.9388 N.3     1  UNL1       -0.2863
     20 C         142.8018  137.4338  159.4467 C.3     1  UNL1        0.1151
     21 C         142.5268  137.8621  158.0357 C.ar    1  UNL1        0.0739
     22 C         142.9211  136.5458  157.4342 C.ar    1  UNL1        0.1147
     23 N         142.7511  136.6462  155.9473 N.ar    1  UNL1       -0.2226
     24 C         142.2518  138.0245  155.6298 C.ar    1  UNL1        0.1786
     25 N         142.1132  138.7761  156.9205 N.ar    1  UNL1       -0.3070
     26 C         141.6238  140.0365  156.2709 C.3     1  UNL1        0.1341
     27 C         142.5156  139.2980  163.2794 C.2     1  UNL1        0.2402
     28 O         142.6510  139.1052  164.0410 O.2     1  UNL1       -0.2734
     29 H         142.3071  136.7529  161.1575 H       1  UNL1        0.1240
     30 N         139.1183  147.4168  156.4105 N.1     1  UNL1       -0.1907
     31 C         139.6016  145.9968  156.3978 C.1     1  UNL1        0.1035
@<TRIPOS>BOND
     1    30    31    3
     2    31     1    1
     3     1     2   ar
     4     2     3   ar
     5     3     4   ar
     6     4     5   ar
     7     5     6   ar
     8     6     7    1
     9     7     8    1
    10     8     9   ar
    11     9    10   ar
    12    10    11   ar
    13    11    12   ar
    14    12    13   ar
    15    12    14    1
    16    14    15    1
    17    15    16    1
    18    16    17    1
    19    18    17    1
    20    18    19    1
    21    19    20    1
    22    20    21    1
    23    21    22   ar
    24    22    23   ar
    25    23    24   ar
    26    24    25   ar
    27    25    26    1
    28    18    27    1
    29    27    28    2
    30     6     1   ar
    31    13     8   ar
    32    27    15   am
    33    26     4    1
    34    25    21   ar
    35    19    29    1
@<TRIPOS>MOLECULE
*****
 31 35 0 0 0
SMALL
GASTEIGER

@<TRIPOS>ATOM
      1 C         139.5945  146.9976  156.4423 C.ar    1  UNL1        0.1028
      2 C         139.7394  146.8852  154.9536 C.ar    1  UNL1        0.0131
      3 C         140.4558  145.7104  154.3563 C.ar    1  UNL1       -0.0015
      4 C         141.1413  144.4774  154.9712 C.ar    1  UNL1        0.0035
      5 C         140.5421  145.4135  155.9786 C.ar    1  UNL1        0.0358
      6 C         140.1659  145.9351  157.3338 C.ar    1  UNL1        0.1545
      7 O         140.0699  145.9627  158.8305 O.3     1  UNL1       -0.4528
      8 C         140.2688  145.4921  160.2408 C.ar    1  UNL1        0.1451
      9 C         139.7716  146.2353  161.4451 C.ar    1  UNL1        0.0375
     10 C         140.0178  145.6867  162.8193 C.ar    1  UNL1        0.0029
     11 C         140.7613  144.3950  162.9891 C.ar    1  UNL1       -0.0024
     12 C         141.2585  143.6519  161.7848 C.ar    1  UNL1        0.0007
     13 C         141.0122  144.2005  160.4106 C.ar    1  UNL1        0.0349
     14 C         142.1410  142.1118  162.0614 C.3     1  UNL1        0.1203
     15 N         142.8719  140.9036  161.5553 N.am    1  UNL1       -0.2743
     16 C         143.5690  139.6635  162.0310 C.3     1  UNL1        0.0957
     17 C         144.0662  138.9204  160.8266 C.3     1  UNL1        0.0466
     18 C         143.8472  139.4460  159.1928 C.3     1  UNL1        0.1337
     19 N         143.9432  139.4184  157.6962 N.3     1  UNL1       -0.2863
     20 C         143.7444  139.8889  156.2858 C.3     1  UNL1        0.1151
     21 C         143.2809  140.7860  155.1765 C.ar    1  UNL1        0.0739
     22 C         143.8419  139.9232  154.0853 C.ar    1  UNL1        0.1147
     23 N         143.5311  140.5769  152.7715 N.ar    1  UNL1       -0.2226
     24 C         142.7782  141.8438  153.0508 C.ar    1  UNL1        0.1786
     25 N         142.6235  141.9730  154.5372 N.ar    1  UNL1       -0.3070
     26 C         141.8721  143.2693  154.4651 C.3     1  UNL1        0.1341
     27 C         143.4710  139.9675  160.5480 C.2     1  UNL1        0.2402
     28 O         143.7017  139.5152  161.1625 O.2     1  UNL1       -0.2734
     29 H         143.5210  138.4983  157.5710 H       1  UNL1        0.1240
     30 N         138.1619  149.3471  157.6370 N.1     1  UNL1       -0.1907
     31 C         138.8782  148.1723  157.0396 C.1     1  UNL1        0.1035
@<TRIPOS>BOND
     1    30    31    3
     2    31     1    1
     3     1     2   ar
     4     2     3   ar
     5     3     4   ar
     6     4     5   ar
     7     5     6   ar
     8     6     7    1
     9     7     8    1
    10     8     9   ar
    11     9    10   ar
    12    10    11   ar
    13    11    12   ar
    14    12    13   ar
    15    12    14    1
    16    14    15    1
    17    15    16    1
    18    16    17    1
    19    18    17    1
    20    18    19    1
    21    19    20    1
    22    20    21    1
    23    21    22   ar
    24    22    23   ar
    25    23    24   ar
    26    24    25   ar
    27    25    26    1
    28    18    27    1
    29    27    28    2
    30     6     1   ar
    31    13     8   ar
    32    27    15   am
    33    26     4    1
    34    25    21   ar
    35    19    29    1
@<TRIPOS>MOLECULE
*****
 31 35 0 0 0
SMALL
GASTEIGER

@<TRIPOS>ATOM
      1 C         139.8330  144.5523  163.1407 C.ar    1  UNL1        0.1028
      2 C         139.6710  145.8823  162.4663 C.ar    1  UNL1        0.0131
      3 C         139.9750  146.0238  161.0042 C.ar    1  UNL1       -0.0015
      4 C         140.4599  145.0304  159.9335 C.ar    1  UNL1        0.0035
      5 C         140.2886  144.4289  161.2970 C.ar    1  UNL1        0.0358
      6 C         140.2992  143.3638  162.3530 C.ar    1  UNL1        0.1545
      7 O         140.4900  141.9971  162.9411 O.3     1  UNL1       -0.4528
      8 C         140.8320  140.5369  162.9715 C.ar    1  UNL1        0.1451
      9 C         140.7500  139.6874  164.2050 C.ar    1  UNL1        0.0375
     10 C         141.1127  138.2334  164.1397 C.ar    1  UNL1        0.0029
     11 C         141.5573  137.6290  162.8408 C.ar    1  UNL1       -0.0024
     12 C         141.6393  138.4785  161.6074 C.ar    1  UNL1        0.0007
     13 C         141.2766  139.9325  161.6727 C.ar    1  UNL1        0.0349
     14 C         142.1793  137.6896  160.0865 C.3     1  UNL1        0.1203
     15 N         142.5064  137.7357  158.6232 N.am    1  UNL1       -0.2743
     16 C         142.9750  136.8679  157.4930 C.3     1  UNL1        0.0957
     17 C         143.0569  137.7175  156.2595 C.3     1  UNL1        0.0466
     18 C         142.6671  139.4022  156.2037 C.3     1  UNL1        0.1337
     19 N         142.4763  140.7688  155.6157 N.3     1  UNL1       -0.2863
     20 C         142.1343  142.2291  155.5852 C.3     1  UNL1        0.1151
     21 C         141.6931  143.5604  156.1171 C.ar    1  UNL1        0.0739
     22 C         141.8293  144.2644  154.7996 C.ar    1  UNL1        0.1147
     23 N         141.4403  145.6994  154.9984 N.ar    1  UNL1       -0.2226
     24 C         141.0638  145.8822  156.4387 C.ar    1  UNL1        0.1786
     25 N         141.2200  144.5603  157.1302 N.ar    1  UNL1       -0.3070
     26 C         140.7870  145.0765  158.4704 C.3     1  UNL1        0.1341
     27 C         142.6777  138.3371  157.2598 C.2     1  UNL1        0.2402
     28 O         142.9075  137.6150  157.0123 O.2     1  UNL1       -0.2734
     29 H         141.8382  140.4858  154.8720 H       1  UNL1        0.1240
     30 N         139.2250  144.2692  166.0648 N.1     1  UNL1       -0.1907
     31 C         139.5290  144.4107  164.6027 C.1     1  UNL1        0.1035
@<TRIPOS>BOND
     1    30    31    3
     2    31     1    1
     3     1     2   ar
     4     2     3   ar
     5     3     4   ar
     6     4     5   ar
     7     5     6   ar
     8     6     7    1
     9     7     8    1
    10     8     9   ar
    11     9    10   ar
    12    10    11   ar
    13    11    12   ar
    14    12    13   ar
    15    12    14    1
    16    14    15    1
    17    15    16    1
    18    16    17    1
    19    18    17    1
    20    18    19    1
    21    19    20    1
    22    20    21    1
    23    21    22   ar
    24    22    23   ar
    25    23    24   ar
    26    24    25   ar
    27    25    26    1
    28    18    27    1
    29    27    28    2
    30     6     1   ar
    31    13     8   ar
    32    27    15   am
    33    26     4    1
    34    25    21   ar
    35    19    29    1
@<TRIPOS>MOLECULE
*****
 31 35 0 0 0
SMALL
GASTEIGER

@<TRIPOS>ATOM
      1 C         142.8173  138.7052  156.0451 C.ar    1  UNL1        0.1028
      2 C         142.9837  137.3759  156.7199 C.ar    1  UNL1        0.0131
      3 C         142.6760  137.2327  158.1810 C.ar    1  UNL1       -0.0015
      4 C         142.1831  138.2236  159.2503 C.ar    1  UNL1        0.0035
      5 C         142.3556  138.8261  157.8875 C.ar    1  UNL1        0.0358
      6 C         142.3431  139.8913  156.8315 C.ar    1  UNL1        0.1545
      7 O         142.1474  141.2571  156.2430 O.3     1  UNL1       -0.4528
      8 C         141.7985  142.7156  156.2117 C.ar    1  UNL1        0.1451
      9 C         141.8801  143.5657  154.9786 C.ar    1  UNL1        0.0375
     10 C         141.5102  145.0179  155.0430 C.ar    1  UNL1        0.0029
     11 C         141.0587  145.6200  156.3406 C.ar    1  UNL1       -0.0024
     12 C         140.9771  144.7699  157.5737 C.ar    1  UNL1        0.0007
     13 C         141.3470  143.3177  157.5093 C.ar    1  UNL1        0.0349
     14 C         140.4287  145.5560  159.0930 C.3     1  UNL1        0.1203
     15 N         140.0974  145.5082  160.5553 N.am    1  UNL1       -0.2743
     16 C         139.6212  146.3736  161.6842 C.3     1  UNL1        0.0957
     17 C         139.5396  145.5234  162.9173 C.3     1  UNL1        0.0466
     18 C         139.9374  143.8405  162.9741 C.3     1  UNL1        0.1337
     19 N         140.1330  142.4748  163.5626 N.3     1  UNL1       -0.2863
     20 C         140.4820  141.0162  163.5939 C.3     1  UNL1        0.1151
     21 C         140.9312  139.6871  163.0632 C.ar    1  UNL1        0.0739
     22 C         140.7944  138.9823  164.3802 C.ar    1  UNL1        0.1147
     23 N         141.1909  137.5493  164.1824 N.ar    1  UNL1       -0.2226
     24 C         141.5727  137.3684  162.7432 C.ar    1  UNL1        0.1786
     25 N         141.4122  138.6897  162.0514 N.ar    1  UNL1       -0.3070
     26 C         141.8518  138.1758  160.7125 C.3     1  UNL1        0.1341
     27 C         139.9249  144.9058  161.9181 C.2     1  UNL1        0.2402
     28 O         139.6909  145.6267  162.1650 O.2     1  UNL1       -0.2734
     29 H         139.1899  142.3754  163.9381 H       1  UNL1        0.1240
     30 N         143.4328  138.9915  153.1229 N.1     1  UNL1       -0.1907
     31 C         143.1250  138.8484  154.5841 C.1     1  UNL1        0.1035
@<TRIPOS>BOND
     1    30    31    3
     2    31     1    1
     3     1     2   ar
     4     2     3   ar
     5     3     4   ar
     6     4     5   ar
     7     5     6   ar
     8     6     7    1
     9     7     8    1
    10     8     9   ar
    11     9    10   ar
    12    10    11   ar
    13    11    12   ar
    14    12    13   ar
    15    12    14    1
    16    14    15    1
    17    15    16    1
    18    16    17    1
    19    18    17    1
    20    18    19    1
    21    19    20    1
    22    20    21    1
    23    21    22   ar
    24    22    23   ar
    25    23    24   ar
    26    24    25   ar
    27    25    26    1
    28    18    27    1
    29    27    28    2
    30     6     1   ar
    31    13     8   ar
    32    27    15   am
    33    26     4    1
    34    25    21   ar
    35    19    29    1
@<TRIPOS>MOLECULE
*****
 31 35 0 0 0
SMALL
GASTEIGER

@<TRIPOS>ATOM
      1 C         143.0041  139.2735  162.7442 C.ar    1  UNL1        0.1028
      2 C         143.4781  138.0072  162.0947 C.ar    1  UNL1        0.0131
      3 C         143.4604  137.8787  160.6003 C.ar    1  UNL1       -0.0015
      4 C         143.0292  138.8315  159.4714 C.ar    1  UNL1        0.0035
      5 C         142.8667  139.3994  160.8502 C.ar    1  UNL1        0.0358
      6 C         142.5124  140.4113  161.8993 C.ar    1  UNL1        0.1545
      7 O         142.0202  141.7130  162.4590 O.3     1  UNL1       -0.4528
      8 C         141.4651  143.1064  162.4442 C.ar    1  UNL1        0.1451
      9 C         141.2017  143.9117  163.6819 C.ar    1  UNL1        0.0375
     10 C         140.6442  145.2996  163.5691 C.ar    1  UNL1        0.0029
     11 C         140.3501  145.8822  162.2185 C.ar    1  UNL1       -0.0024
     12 C         140.6135  145.0769  160.9808 C.ar    1  UNL1        0.0007
     13 C         141.1710  143.6890  161.0936 C.ar    1  UNL1        0.0349
     14 C         140.2381  145.8365  159.3967 C.3     1  UNL1        0.1203
     15 N         140.1839  145.7991  157.8981 N.am    1  UNL1       -0.2743
     16 C         139.7977  146.6322  156.7121 C.3     1  UNL1        0.0957
     17 C         140.0611  145.8268  155.4743 C.3     1  UNL1        0.0466
     18 C         140.7007  144.2192  155.4702 C.3     1  UNL1        0.1337
     19 N         141.1928  142.9176  154.9105 N.3     1  UNL1       -0.2863
     20 C         141.7480  141.5242  154.9253 C.3     1  UNL1        0.1151
     21 C         142.2817  140.2512  155.5125 C.ar    1  UNL1        0.0739
     22 C         142.4854  139.5852  154.1840 C.ar    1  UNL1        0.1147
     23 N         143.0422  138.2148  154.4331 N.ar    1  UNL1       -0.2226
     24 C         143.1826  138.0339  155.9155 C.ar    1  UNL1        0.1786
     25 N         142.7125  139.2925  156.5827 N.ar    1  UNL1       -0.3070
     26 C         142.9750  138.7939  157.9728 C.3     1  UNL1        0.1341
     27 C         140.3464  145.2311  156.5193 C.2     1  UNL1        0.2402
     28 O         140.0590  145.9213  156.2428 O.2     1  UNL1       -0.2734
     29 H         141.9026  143.3176  154.2967 H       1  UNL1        0.1240
     30 N         143.0396  139.5308  165.7330 N.1     1  UNL1       -0.1907
     31 C         143.0219  139.4021  164.2385 C.1     1  UNL1        0.1035
@<TRIPOS>BOND
     1    30    31    3
     2    31     1    1
     3     1     2   ar
     4     2     3   ar
     5     3     4   ar
     6     4     5   ar
     7     5     6   ar
     8     6     7    1
     9     7     8    1
    10     8     9   ar
    11     9    10   ar
    12    10    11   ar
    13    11    12   ar
    14    12    13   ar
    15    12    14    1
    16    14    15    1
    17    15    16    1
    18    16    17    1
    19    18    17    1
    20    18    19    1
    21    19    20    1
    22    20    21    1
    23    21    22   ar
    24    22    23   ar
    25    23    24   ar
    26    24    25   ar
    27    25    26    1
    28    18    27    1
    29    27    28    2
    30     6     1   ar
    31    13     8   ar
    32    27    15   am
    33    26     4    1
    34    25    21   ar
    35    19    29    1
@<TRIPOS>MOLECULE
*****
 31 35 0 0 0
SMALL
GASTEIGER

@<TRIPOS>ATOM
      1 C         141.4399  144.5061  161.2502 C.ar    1  UNL1        0.1028
      2 C         140.7217  145.6372  160.5758 C.ar    1  UNL1        0.0131
      3 C         140.1333  145.4437  159.2097 C.ar    1  UNL1       -0.0015
      4 C         140.0899  144.2435  158.2475 C.ar    1  UNL1        0.0035
      5 C         140.8044  143.9709  159.5379 C.ar    1  UNL1        0.0358
      6 C         141.5696  143.1814  160.5584 C.ar    1  UNL1        0.1545
      7 O         142.2689  141.9954  161.1536 O.3     1  UNL1       -0.4528
      8 C         142.7959  140.5932  161.2329 C.ar    1  UNL1        0.1451
      9 C         143.5502  140.0519  162.4110 C.ar    1  UNL1        0.0375
     10 C         144.0397  138.6341  162.4009 C.ar    1  UNL1        0.0029
     11 C         143.7749  137.7576  161.2128 C.ar    1  UNL1       -0.0024
     12 C         143.0206  138.2990  160.0347 C.ar    1  UNL1        0.0007
     13 C         142.5310  139.7168  160.0448 C.ar    1  UNL1        0.0349
     14 C         142.7391  137.1944  158.6462 C.3     1  UNL1        0.1203
     15 N         142.1840  136.9085  157.2823 N.am    1  UNL1       -0.2743
     16 C         142.0743  135.8160  156.2603 C.3     1  UNL1        0.0957
     17 C         141.3199  136.3575  155.0822 C.3     1  UNL1        0.0466
     18 C         140.7043  137.9706  154.9714 C.3     1  UNL1        0.1337
     19 N         140.0050  139.1566  154.3763 N.3     1  UNL1       -0.2863
     20 C         139.4780  140.5588  154.2969 C.3     1  UNL1        0.1151
     21 C         139.2036  141.9635  154.7456 C.ar    1  UNL1        0.0739
     22 C         138.4698  142.3454  153.4944 C.ar    1  UNL1        0.1147
     23 N         138.0361  143.7750  153.6294 N.ar    1  UNL1       -0.2226
     24 C         138.5020  144.2766  154.9640 C.ar    1  UNL1        0.1786
     25 N         139.2236  143.1570  155.6539 N.ar    1  UNL1       -0.3070
     26 C         139.5348  143.9577  156.8837 C.3     1  UNL1        0.1341
     27 C         141.4694  137.1811  155.9919 C.2     1  UNL1        0.2402
     28 O         141.6333  136.4285  155.7867 O.2     1  UNL1       -0.2734
     29 H         139.1154  138.6894  154.2010 H       1  UNL1        0.1240
     30 N         142.6167  144.8929  163.9825 N.1     1  UNL1       -0.1907
     31 C         142.0283  144.6995  162.6163 C.1     1  UNL1        0.1035
@<TRIPOS>BOND
     1    30    31    3
     2    31     1    1
     3     1     2   ar
     4     2     3   ar
     5     3     4   ar
     6     4     5   ar
     7     5     6   ar
     8     6     7    1
     9     7     8    1
    10     8     9   ar
    11     9    10   ar
    12    10    11   ar
    13    11    12   ar
    14    12    13   ar
    15    12    14    1
    16    14    15    1
    17    15    16    1
    18    16    17    1
    19    18    17    1
    20    18    19    1
    21    19    20    1
    22    20    21    1
    23    21    22   ar
    24    22    23   ar
    25    23    24   ar
    26    24    25   ar
    27    25    26    1
    28    18    27    1
    29    27    28    2
    30     6     1   ar
    31    13     8   ar
    32    27    15   am
    33    26     4    1
    34    25    21   ar
    35    19    29    1
@<TRIPOS>MOLECULE
*****
 31 35 0 0 0
SMALL
GASTEIGER

@<TRIPOS>ATOM
      1 C         143.2688  139.7949  162.7306 C.ar    1  UNL1        0.1028
      2 C         143.7588  138.3908  162.5344 C.ar    1  UNL1        0.0131
      3 C         143.6014  137.7209  161.2015 C.ar    1  UNL1       -0.0015
      4 C         142.9980  138.1800  159.8624 C.ar    1  UNL1        0.0035
      5 C         142.9359  139.2113  160.9499 C.ar    1  UNL1        0.0358
      6 C         142.6213  140.5290  161.5939 C.ar    1  UNL1        0.1545
      7 O         142.1019  141.9324  161.6964 O.3     1  UNL1       -0.4528
      8 C         141.4568  143.2080  161.2418 C.ar    1  UNL1        0.1451
      9 C         141.2648  144.4054  162.1246 C.ar    1  UNL1        0.0375
     10 C         140.6080  145.6399  161.5816 C.ar    1  UNL1        0.0029
     11 C         140.1433  145.6769  160.1559 C.ar    1  UNL1       -0.0024
     12 C         140.3353  144.4795  159.2731 C.ar    1  UNL1        0.0007
     13 C         140.9921  143.2451  159.8161 C.ar    1  UNL1        0.0349
     14 C         139.7551  144.5930  157.5768 C.3     1  UNL1        0.1203
     15 N         139.5550  144.0052  156.2113 N.am    1  UNL1       -0.2743
     16 C         138.9985  144.3334  154.8575 C.3     1  UNL1        0.0957
     17 C         139.1906  143.1359  153.9748 C.3     1  UNL1        0.0466
     18 C         139.9317  141.6563  154.4797 C.3     1  UNL1        0.1337
     19 N         140.4511  140.2530  154.3772 N.3     1  UNL1       -0.2863
     20 C         141.0962  138.9772  154.8318 C.3     1  UNL1        0.1151
     21 C         141.7687  138.0237  155.7744 C.ar    1  UNL1        0.0739
     22 C         141.8833  136.9209  154.7642 C.ar    1  UNL1        0.1147
     23 N         142.5517  135.7529  155.4268 N.ar    1  UNL1       -0.2226
     24 C         142.8502  136.1339  156.8465 C.ar    1  UNL1        0.1786
     25 N         142.3663  137.5374  157.0614 N.ar    1  UNL1       -0.3070
     26 C         142.7979  137.5923  158.4969 C.3     1  UNL1        0.1341
     27 C         139.6170  142.9740  155.1237 C.2     1  UNL1        0.2402
     28 O         139.2585  143.5065  154.6512 O.2     1  UNL1       -0.2734
     29 H         141.0683  140.4167  153.5818 H       1  UNL1        0.1240
     30 N         143.5836  141.1349  165.3961 N.1     1  UNL1       -0.1907
     31 C         143.4262  140.4649  164.0633 C.1     1  UNL1        0.1035
@<TRIPOS>BOND
     1    30    31    3
     2    31     1    1
     3     1     2   ar
     4     2     3   ar
     5     3     4   ar
     6     4     5   ar
     7     5     6   ar
     8     6     7    1
     9     7     8    1
    10     8     9   ar
    11     9    10   ar
    12    10    11   ar
    13    11    12   ar
    14    12    13   ar
    15    12    14    1
    16    14    15    1
    17    15    16    1
    18    16    17    1
    19    18    17    1
    20    18    19    1
    21    19    20    1
    22    20    21    1
    23    21    22   ar
    24    22    23   ar
    25    23    24   ar
    26    24    25   ar
    27    25    26    1
    28    18    27    1
    29    27    28    2
    30     6     1   ar
    31    13     8   ar
    32    27    15   am
    33    26     4    1
    34    25    21   ar
    35    19    29    1
@<TRIPOS>MOLECULE
*****
 31 35 0 0 0
SMALL
GASTEIGER

@<TRIPOS>ATOM
      1 C         135.4369  140.6365  156.4667 C.ar    1  UNL1        0.1028
      2 C         135.2588  141.2330  155.1020 C.ar    1  UNL1        0.0131
      3 C         136.3855  141.9874  154.4604 C.ar    1  UNL1       -0.0015
      4 C         137.8158  142.3241  154.9176 C.ar    1  UNL1        0.0035
      5 C         137.0242  141.5284  155.9126 C.ar    1  UNL1        0.0358
      6 C         136.7416  140.7943  157.1898 C.ar    1  UNL1        0.1545
      7 O         137.0111  140.2336  158.5547 O.3     1  UNL1       -0.4528
      8 C         137.7916  139.9315  159.7995 C.ar    1  UNL1        0.1451
      9 C         137.2439  139.1516  160.9578 C.ar    1  UNL1        0.0375
     10 C         138.1000  138.8983  162.1632 C.ar    1  UNL1        0.0029
     11 C         139.5037  139.4249  162.2102 C.ar    1  UNL1       -0.0024
     12 C         140.0514  140.2048  161.0519 C.ar    1  UNL1        0.0007
     13 C         139.1954  140.4581  159.8465 C.ar    1  UNL1        0.0349
     14 C         141.7399  140.8055  161.1755 C.3     1  UNL1        0.1203
     15 N         142.9202  141.5416  160.6141 N.am    1  UNL1       -0.2743
     16 C         144.3303  141.9327  160.9438 C.3     1  UNL1        0.0957
     17 C         144.8780  142.7126  159.7854 C.3     1  UNL1        0.0466
     18 C         143.9944  143.0714  158.3418 C.3     1  UNL1        0.1337
     19 N         143.7250  143.6322  156.9770 N.3     1  UNL1       -0.2863
     20 C         142.9444  143.9343  155.7321 C.3     1  UNL1        0.1151
     21 C         141.7716  143.9316  154.7970 C.ar    1  UNL1        0.0739
     22 C         142.4689  144.7246  153.7317 C.ar    1  UNL1        0.1147
     23 N         141.5133  144.9079  152.5900 N.ar    1  UNL1       -0.2226
     24 C         140.2255  144.2281  152.9498 C.ar    1  UNL1        0.1786
     25 N         140.3851  143.6247  154.3138 N.ar    1  UNL1       -0.3070
     26 C         138.9960  143.0602  154.3562 C.3     1  UNL1        0.1341
     27 C         143.7119  142.3373  159.6190 C.2     1  UNL1        0.2402
     28 O         144.3142  142.3184  160.1408 O.2     1  UNL1       -0.2734
     29 H         144.5156  143.1865  156.5115 H       1  UNL1        0.1240
     30 N         133.1836  139.1279  157.7501 N.1     1  UNL1       -0.1907
     31 C         134.3102  139.8822  157.1084 C.1     1  UNL1        0.1035
@<TRIPOS>BOND
     1    30    31    3
     2    31     1    1
     3     1     2   ar
     4     2     3   ar
     5     3     4   ar
     6     4     5   ar
     7     5     6   ar
     8     6     7    1
     9     7     8    1
    10     8     9   ar
    11     9    10   ar
    12    10    11   ar
    13    11    12   ar
    14    12    13   ar
    15    12    14    1
    16    14    15    1
    17    15    16    1
    18    16    17    1
    19    18    17    1
    20    18    19    1
    21    19    20    1
    22    20    21    1
    23    21    22   ar
    24    22    23   ar
    25    23    24   ar
    26    24    25   ar
    27    25    26    1
    28    18    27    1
    29    27    28    2
    30     6     1   ar
    31    13     8   ar
    32    27    15   am
    33    26     4    1
    34    25    21   ar
    35    19    29    1
