@<TRIPOS>MOLECULE
*****
 35 38 0 0 0
SMALL
GASTEIGER

@<TRIPOS>ATOM
      1 C         140.7379  140.2020  164.4810 C.2     1  UNL1        0.1397
      2 C         140.4443  140.1164  163.0125 C.2     1  UNL1        0.1355
      3 N         140.2770  141.3705  162.2067 N.pl3   1  UNL1       -0.1998
      4 C         140.4032  142.7102  162.8694 C.2     1  UNL1        0.3442
      5 N         140.6968  142.7958  164.3379 N.2     1  UNL1       -0.0580
      6 C         140.8641  141.5417  165.1437 C.3     1  UNL1        0.2695
      7 H         140.0843  141.3143  161.2429 H       1  UNL1        0.2983
      8 C         141.1577  141.6273  166.6122 C.ar    1  UNL1        0.0414
      9 C         140.0703  141.3630  167.6111 C.ar    1  UNL1        0.0019
     10 C         140.3638  141.4486  169.0796 C.ar    1  UNL1        0.0113
     11 C         141.7448  141.7987  169.5492 C.ar    1  UNL1        0.0585
     12 CL        142.0383  141.8843  171.0177 Cl      1  UNL1       -0.0822
     13 C         142.8321  142.0630  168.5504 C.ar    1  UNL1        0.0226
     14 C         142.5386  141.9774  167.0818 C.ar    1  UNL1        0.0589
     15 CL        143.6259  142.2417  166.0830 Cl      1  UNL1       -0.0824
     16 C         140.2359  143.9643  162.0637 C.ar    1  UNL1        0.1931
     17 N         140.5647  144.1283  160.6094 N.ar    1  UNL1       -0.2297
     18 C         140.2424  145.5399  160.2176 C.ar    1  UNL1        0.1067
     19 C         139.7145  146.2483  161.4298 C.ar    1  UNL1        0.0577
     20 S         139.7105  145.2745  162.5707 S.2     1  UNL1       -0.0586
     21 C         140.9052  138.9479  165.2867 C.2     1  UNL1        0.3447
     22 O         142.2643  138.5496  165.7809 O.2     1  UNL1       -0.2450
     23 O         139.7134  138.0920  165.5984 O.3     1  UNL1       -0.4455
     24 C         137.6373  138.5550  167.0902 C.3     1  UNL1        0.0513
     25 C         138.3663  138.7233  165.7900 C.3     1  UNL1        0.2089
     26 C         140.3181  138.7766  162.3497 C.3     1  UNL1        0.1405
     27 N         140.8710  138.5667  160.9713 N.3     1  UNL1       -0.2608
     28 C         139.9829  138.7313  159.7738 C.3     1  UNL1        0.1050
     29 C         140.5359  138.5213  158.3953 C.3     1  UNL1        0.1595
     30 O         141.9771  138.1468  158.2144 O.3     1  UNL1       -0.3508
     31 C         142.8652  137.9822  159.4119 C.3     1  UNL1        0.1606
     32 C         142.3123  138.1921  160.7904 C.3     1  UNL1        0.1173
     33 C         143.2004  138.0275  161.9879 C.3     1  UNL1        0.1556
     34 O         144.5086  138.7581  162.0575 O.3     1  UNL1       -0.3805
     35 H         145.1028  138.4238  161.3676 H       1  UNL1        0.2105
@<TRIPOS>BOND
     1    24    25    1
     2    25    23    1
     3    23    21    1
     4    21    22    2
     5    21     1    1
     6     1     2    2
     7     2    26    1
     8    26    27    1
     9    27    28    1
    10    28    29    1
    11    29    30    1
    12    30    31    1
    13    31    32    1
    14    32    33    1
    15    33    34    1
    16     2     3    1
    17     3     4    1
    18     4    16    1
    19    16    17   ar
    20    17    18   ar
    21    18    19   ar
    22    19    20   ar
    23     4     5    2
    24     5     6    1
    25     6     8    1
    26     8     9   ar
    27     9    10   ar
    28    10    11   ar
    29    11    12    1
    30    11    13   ar
    31    13    14   ar
    32    14    15    1
    33     6     1    1
    34    14     8   ar
    35    32    27    1
    36    20    16   ar
    37    34    35    1
    38     3     7    1
@<TRIPOS>MOLECULE
*****
 35 38 0 0 0
SMALL
GASTEIGER

@<TRIPOS>ATOM
      1 C         141.3632  139.7776  164.0166 C.2     1  UNL1        0.1397
      2 C         141.5859  139.9999  162.5500 C.2     1  UNL1        0.1355
      3 N         141.2929  141.3392  161.9415 N.pl3   1  UNL1       -0.1998
      4 C         140.7773  142.4562  162.7995 C.2     1  UNL1        0.3442
      5 N         140.5546  142.2340  164.2661 N.2     1  UNL1       -0.0580
      6 C         140.8476  140.8946  164.8746 C.3     1  UNL1        0.2695
      7 H         141.4391  141.4850  160.9789 H       1  UNL1        0.2983
      8 C         140.6249  140.6724  166.3413 C.ar    1  UNL1        0.0414
      9 C         141.6930  141.0438  167.3268 C.ar    1  UNL1        0.0019
     10 C         141.4703  140.8216  168.7934 C.ar    1  UNL1        0.0113
     11 C         140.1795  140.2279  169.2746 C.ar    1  UNL1        0.0585
     12 CL        139.9569  140.0057  170.7412 Cl      1  UNL1       -0.0822
     13 C         139.1114  139.8565  168.2891 C.ar    1  UNL1        0.0226
     14 C         139.3341  140.0787  166.8224 C.ar    1  UNL1        0.0589
     15 CL        138.2660  139.7073  165.8369 Cl      1  UNL1       -0.0824
     16 C         140.4843  143.7956  162.1909 C.ar    1  UNL1        0.1931
     17 N         140.7120  144.1825  160.7597 N.ar    1  UNL1       -0.2297
     18 C         140.2806  145.6092  160.5909 C.ar    1  UNL1        0.1067
     19 C         139.7863  146.1040  161.9178 C.ar    1  UNL1        0.0577
     20 S         139.9122  144.9831  162.9067 S.2     1  UNL1       -0.0586
     21 C         141.6562  138.4383  164.6252 C.2     1  UNL1        0.3447
     22 O         140.5914  137.3825  164.6630 O.2     1  UNL1       -0.2450
     23 O         143.0140  138.1546  165.1960 O.3     1  UNL1       -0.4455
     24 C         144.9938  139.4630  164.1383 C.3     1  UNL1        0.0513
     25 C         144.0380  139.2480  165.2742 C.3     1  UNL1        0.2089
     26 C         142.1016  138.8828  161.6919 C.3     1  UNL1        0.1405
     27 N         141.6786  138.7832  160.2563 N.3     1  UNL1       -0.2608
     28 C         142.6979  138.9126  159.1634 C.3     1  UNL1        0.1050
     29 C         142.2748  138.8130  157.7277 C.3     1  UNL1        0.1595
     30 O         140.8326  138.5841  157.3849 O.3     1  UNL1       -0.3508
     31 C         139.8134  138.4546  158.4778 C.3     1  UNL1        0.1606
     32 C         140.2363  138.5542  159.9135 C.3     1  UNL1        0.1173
     33 C         139.2171  138.4248  161.0064 C.3     1  UNL1        0.1556
     34 O         139.3154  137.3005  161.9943 O.3     1  UNL1       -0.3805
     35 H         139.1728  136.4562  161.5386 H       1  UNL1        0.2105
@<TRIPOS>BOND
     1    24    25    1
     2    25    23    1
     3    23    21    1
     4    21    22    2
     5    21     1    1
     6     1     2    2
     7     2    26    1
     8    26    27    1
     9    27    28    1
    10    28    29    1
    11    29    30    1
    12    30    31    1
    13    31    32    1
    14    32    33    1
    15    33    34    1
    16     2     3    1
    17     3     4    1
    18     4    16    1
    19    16    17   ar
    20    17    18   ar
    21    18    19   ar
    22    19    20   ar
    23     4     5    2
    24     5     6    1
    25     6     8    1
    26     8     9   ar
    27     9    10   ar
    28    10    11   ar
    29    11    12    1
    30    11    13   ar
    31    13    14   ar
    32    14    15    1
    33     6     1    1
    34    14     8   ar
    35    32    27    1
    36    20    16   ar
    37    34    35    1
    38     3     7    1
@<TRIPOS>MOLECULE
*****
 35 38 0 0 0
SMALL
GASTEIGER

@<TRIPOS>ATOM
      1 C         140.1457  140.6565  162.1142 C.2     1  UNL1        0.1397
      2 C         139.3595  141.0856  160.9111 C.2     1  UNL1        0.1355
      3 N         139.4939  140.3338  159.6201 N.pl3   1  UNL1       -0.1998
      4 C         140.4147  139.1530  159.5321 C.2     1  UNL1        0.3442
      5 N         141.2009  138.7239  160.7353 N.2     1  UNL1       -0.0580
      6 C         141.0664  139.4756  162.0263 C.3     1  UNL1        0.2695
      7 H         138.9779  140.6155  158.8304 H       1  UNL1        0.2983
      8 C         141.8528  139.0464  163.2295 C.ar    1  UNL1        0.0414
      9 C         143.2186  139.6159  163.4751 C.ar    1  UNL1        0.0019
     10 C         144.0049  139.1867  164.6782 C.ar    1  UNL1        0.0113
     11 C         143.4254  138.1881  165.6358 C.ar    1  UNL1        0.0585
     12 CL        144.2117  137.7589  166.8389 Cl      1  UNL1       -0.0822
     13 C         142.0596  137.6186  165.3902 C.ar    1  UNL1        0.0226
     14 C         141.2733  138.0478  164.1871 C.ar    1  UNL1        0.0589
     15 CL        139.9075  137.4783  163.9415 Cl      1  UNL1       -0.0824
     16 C         140.5491  138.4012  158.2411 C.ar    1  UNL1        0.1931
     17 N         139.4241  137.9958  157.3356 N.ar    1  UNL1       -0.2297
     18 C         140.0119  137.2669  156.1637 C.ar    1  UNL1        0.1067
     19 C         141.5002  137.2219  156.3450 C.ar    1  UNL1        0.0577
     20 S         141.8322  137.9229  157.6288 S.2     1  UNL1       -0.0586
     21 C         140.0113  141.4082  163.4053 C.2     1  UNL1        0.3447
     22 O         140.9147  142.5702  163.6942 O.2     1  UNL1       -0.2450
     23 O         138.9734  140.9979  164.4075 O.3     1  UNL1       -0.4455
     24 C         138.8902  139.6125  166.6038 C.3     1  UNL1        0.0513
     25 C         139.3499  140.8246  165.8491 C.3     1  UNL1        0.2089
     26 C         138.4387  142.2665  160.9990 C.3     1  UNL1        0.1405
     27 N         139.0025  143.6559  161.0378 N.3     1  UNL1       -0.2608
     28 C         139.9289  144.1200  159.9531 C.3     1  UNL1        0.1050
     29 C         140.4927  145.5095  159.9920 C.3     1  UNL1        0.1595
     30 O         140.1302  146.4348  161.1154 O.3     1  UNL1       -0.3508
     31 C         139.2038  145.9708  162.2001 C.3     1  UNL1        0.1606
     32 C         138.6400  144.5814  162.1613 C.3     1  UNL1        0.1173
     33 C         137.7136  144.1173  163.2460 C.3     1  UNL1        0.1556
     34 O         138.2151  143.9806  164.6530 O.3     1  UNL1       -0.3805
     35 H         138.8784  143.2739  164.6926 H       1  UNL1        0.2105
@<TRIPOS>BOND
     1    24    25    1
     2    25    23    1
     3    23    21    1
     4    21    22    2
     5    21     1    1
     6     1     2    2
     7     2    26    1
     8    26    27    1
     9    27    28    1
    10    28    29    1
    11    29    30    1
    12    30    31    1
    13    31    32    1
    14    32    33    1
    15    33    34    1
    16     2     3    1
    17     3     4    1
    18     4    16    1
    19    16    17   ar
    20    17    18   ar
    21    18    19   ar
    22    19    20   ar
    23     4     5    2
    24     5     6    1
    25     6     8    1
    26     8     9   ar
    27     9    10   ar
    28    10    11   ar
    29    11    12    1
    30    11    13   ar
    31    13    14   ar
    32    14    15    1
    33     6     1    1
    34    14     8   ar
    35    32    27    1
    36    20    16   ar
    37    34    35    1
    38     3     7    1
@<TRIPOS>MOLECULE
*****
 35 38 0 0 0
SMALL
GASTEIGER

@<TRIPOS>ATOM
      1 C         141.4205  141.9069  161.9012 C.2     1  UNL1        0.1397
      2 C         142.0247  142.2407  160.5695 C.2     1  UNL1        0.1355
      3 N         142.1266  141.1870  159.5068 N.pl3   1  UNL1       -0.1998
      4 C         141.6244  139.7995  159.7758 C.2     1  UNL1        0.3442
      5 N         141.0202  139.4656  161.1075 N.2     1  UNL1       -0.0580
      6 C         140.9183  140.5193  162.1702 C.3     1  UNL1        0.2695
      7 H         142.5232  141.4062  158.6328 H       1  UNL1        0.2983
      8 C         140.3141  140.1854  163.5020 C.ar    1  UNL1        0.0414
      9 C         141.1886  139.7110  164.6246 C.ar    1  UNL1        0.0019
     10 C         140.5845  139.3771  165.9563 C.ar    1  UNL1        0.0113
     11 C         139.1057  139.5176  166.1655 C.ar    1  UNL1        0.0585
     12 CL        138.5016  139.1837  167.4972 Cl      1  UNL1       -0.0822
     13 C         138.2312  139.9920  165.0429 C.ar    1  UNL1        0.0226
     14 C         138.8354  140.3259  163.7111 C.ar    1  UNL1        0.0589
     15 CL        137.9609  140.8003  162.5886 Cl      1  UNL1       -0.0824
     16 C         141.7263  138.7458  158.7131 C.ar    1  UNL1        0.1931
     17 N         142.9419  137.9250  158.3990 N.ar    1  UNL1       -0.2297
     18 C         142.5975  136.9998  157.2697 C.ar    1  UNL1        0.1067
     19 C         141.1689  137.2487  156.8859 C.ar    1  UNL1        0.0577
     20 S         140.6306  138.3277  157.7780 S.2     1  UNL1       -0.0586
     21 C         141.3186  142.9606  162.9639 C.2     1  UNL1        0.3447
     22 O         142.5332  143.3494  163.7535 O.2     1  UNL1       -0.2450
     23 O         140.0020  143.6254  163.2370 O.3     1  UNL1       -0.4455
     24 C         139.7540  143.3324  165.8066 C.3     1  UNL1        0.0513
     25 C         139.7232  144.2096  164.5902 C.3     1  UNL1        0.2089
     26 C         142.5269  143.6283  160.3005 C.3     1  UNL1        0.1405
     27 N         142.0413  144.3816  159.0977 N.3     1  UNL1       -0.2608
     28 C         142.7684  144.2582  157.7915 C.3     1  UNL1        0.1050
     29 C         142.2828  145.0116  156.5887 C.3     1  UNL1        0.1595
     30 O         141.0701  145.8883  156.6921 O.3     1  UNL1       -0.3508
     31 C         140.3430  146.0117  157.9983 C.3     1  UNL1        0.1606
     32 C         140.8286  145.2584  159.2011 C.3     1  UNL1        0.1173
     33 C         140.1015  145.3818  160.5072 C.3     1  UNL1        0.1556
     34 O         140.6839  146.2092  161.6146 O.3     1  UNL1       -0.3805
     35 H         141.5070  145.8004  161.9250 H       1  UNL1        0.2105
@<TRIPOS>BOND
     1    24    25    1
     2    25    23    1
     3    23    21    1
     4    21    22    2
     5    21     1    1
     6     1     2    2
     7     2    26    1
     8    26    27    1
     9    27    28    1
    10    28    29    1
    11    29    30    1
    12    30    31    1
    13    31    32    1
    14    32    33    1
    15    33    34    1
    16     2     3    1
    17     3     4    1
    18     4    16    1
    19    16    17   ar
    20    17    18   ar
    21    18    19   ar
    22    19    20   ar
    23     4     5    2
    24     5     6    1
    25     6     8    1
    26     8     9   ar
    27     9    10   ar
    28    10    11   ar
    29    11    12    1
    30    11    13   ar
    31    13    14   ar
    32    14    15    1
    33     6     1    1
    34    14     8   ar
    35    32    27    1
    36    20    16   ar
    37    34    35    1
    38     3     7    1
@<TRIPOS>MOLECULE
*****
 35 38 0 0 0
SMALL
GASTEIGER

@<TRIPOS>ATOM
      1 C         140.5210  141.0149  161.4026 C.2     1  UNL1        0.1397
      2 C         139.8407  141.4213  160.1290 C.2     1  UNL1        0.1355
      3 N         139.8636  140.5055  158.9412 N.pl3   1  UNL1       -0.1998
      4 C         140.5667  139.1834  159.0270 C.2     1  UNL1        0.3442
      5 N         141.2471  138.7770  160.3005 N.2     1  UNL1       -0.0580
      6 C         141.2242  139.6928  161.4883 C.3     1  UNL1        0.2695
      7 H         139.4170  140.7723  158.1053 H       1  UNL1        0.2983
      8 C         141.9046  139.2864  162.7619 C.ar    1  UNL1        0.0414
      9 C         141.1395  138.5437  163.8170 C.ar    1  UNL1        0.0019
     10 C         141.8198  138.1373  165.0905 C.ar    1  UNL1        0.0113
     11 C         143.2653  138.4735  165.3091 C.ar    1  UNL1        0.0585
     12 CL        143.9456  138.0671  166.5826 Cl      1  UNL1       -0.0822
     13 C         144.0304  139.2161  164.2540 C.ar    1  UNL1        0.0226
     14 C         143.3500  139.6225  162.9804 C.ar    1  UNL1        0.0589
     15 CL        144.1151  140.3652  161.9253 Cl      1  UNL1       -0.0824
     16 C         140.5896  138.2676  157.8392 C.ar    1  UNL1        0.1931
     17 N         139.4015  137.8517  157.0235 N.ar    1  UNL1       -0.2297
     18 C         139.8821  136.9340  155.9387 C.ar    1  UNL1        0.1067
     19 C         141.3674  136.7826  156.0840 C.ar    1  UNL1        0.0577
     20 S         141.8046  137.6068  157.2586 S.2     1  UNL1       -0.0586
     21 C         140.4982  141.9307  162.5903 C.2     1  UNL1        0.3447
     22 O         139.2997  141.9600  163.4919 O.2     1  UNL1       -0.2450
     23 O         141.6738  142.8173  162.8766 O.3     1  UNL1       -0.4455
     24 C         142.4066  142.3868  165.3317 C.3     1  UNL1        0.0513
     25 C         141.9109  143.3222  164.2690 C.3     1  UNL1        0.2089
     26 C         139.1375  142.7435  160.0432 C.3     1  UNL1        0.1405
     27 N         139.4424  143.6833  158.9146 N.3     1  UNL1       -0.2608
     28 C         138.9893  143.3559  157.5227 C.3     1  UNL1        0.1050
     29 C         139.2943  144.2957  156.3941 C.3     1  UNL1        0.1595
     30 O         140.0523  145.5630  156.6574 O.3     1  UNL1       -0.3508
     31 C         140.5054  145.8905  158.0493 C.3     1  UNL1        0.1606
     32 C         140.2005  144.9507  159.1779 C.3     1  UNL1        0.1173
     33 C         140.6536  145.2781  160.5698 C.3     1  UNL1        0.1556
     34 O         142.0892  145.0809  160.9571 O.3     1  UNL1       -0.3805
     35 H         142.3030  144.1350  160.9352 H       1  UNL1        0.2105
@<TRIPOS>BOND
     1    24    25    1
     2    25    23    1
     3    23    21    1
     4    21    22    2
     5    21     1    1
     6     1     2    2
     7     2    26    1
     8    26    27    1
     9    27    28    1
    10    28    29    1
    11    29    30    1
    12    30    31    1
    13    31    32    1
    14    32    33    1
    15    33    34    1
    16     2     3    1
    17     3     4    1
    18     4    16    1
    19    16    17   ar
    20    17    18   ar
    21    18    19   ar
    22    19    20   ar
    23     4     5    2
    24     5     6    1
    25     6     8    1
    26     8     9   ar
    27     9    10   ar
    28    10    11   ar
    29    11    12    1
    30    11    13   ar
    31    13    14   ar
    32    14    15    1
    33     6     1    1
    34    14     8   ar
    35    32    27    1
    36    20    16   ar
    37    34    35    1
    38     3     7    1
@<TRIPOS>MOLECULE
*****
 35 38 0 0 0
SMALL
GASTEIGER

@<TRIPOS>ATOM
      1 C         142.4460  139.9048  160.2632 C.2     1  UNL1        0.1397
      2 C         143.2455  140.2029  159.0296 C.2     1  UNL1        0.1355
      3 N         143.4449  139.1401  157.9900 N.pl3   1  UNL1       -0.1998
      4 C         142.8450  137.7791  158.1841 C.2     1  UNL1        0.3442
      5 N         142.0455  137.4810  159.4178 N.2     1  UNL1       -0.0580
      6 C         141.8461  138.5438  160.4573 C.3     1  UNL1        0.2695
      7 H         143.9696  139.3358  157.1803 H       1  UNL1        0.2983
      8 C         141.0466  138.2456  161.6911 C.ar    1  UNL1        0.0414
      9 C         141.7315  137.7316  162.9226 C.ar    1  UNL1        0.0019
     10 C         140.9321  137.4334  164.1562 C.ar    1  UNL1        0.0113
     11 C         139.4477  137.6491  164.1584 C.ar    1  UNL1        0.0585
     12 CL        138.6483  137.3509  165.3921 Cl      1  UNL1       -0.0822
     13 C         138.7627  138.1631  162.9269 C.ar    1  UNL1        0.0226
     14 C         139.5622  138.4613  161.6932 C.ar    1  UNL1        0.0589
     15 CL        138.8772  138.9753  160.4617 Cl      1  UNL1       -0.0824
     16 C         143.0444  136.7163  157.1446 C.ar    1  UNL1        0.1931
     17 N         143.0910  135.2378  157.3930 N.ar    1  UNL1       -0.2297
     18 C         143.3077  134.5531  156.0760 C.ar    1  UNL1        0.1067
     19 C         143.3951  135.6085  155.0138 C.ar    1  UNL1        0.0577
     20 S         143.2324  136.9454  155.6742 S.2     1  UNL1       -0.0586
     21 C         142.2466  140.9676  161.3028 C.2     1  UNL1        0.3447
     22 O         141.1329  141.9615  161.1551 O.2     1  UNL1       -0.2450
     23 O         143.1608  141.0365  162.4899 O.3     1  UNL1       -0.4455
     24 C         144.8808  139.6088  163.8140 C.3     1  UNL1        0.0513
     25 C         144.4119  140.2097  162.5221 C.3     1  UNL1        0.2089
     26 C         143.8455  141.5640  158.8354 C.3     1  UNL1        0.1405
     27 N         143.5800  142.3273  157.5718 N.3     1  UNL1       -0.2608
     28 C         142.3188  143.1268  157.4294 C.3     1  UNL1        0.1050
     29 C         142.0533  143.8902  156.1657 C.3     1  UNL1        0.1595
     30 O         143.0490  143.8541  155.0445 O.3     1  UNL1       -0.3508
     31 C         144.3102  143.0547  155.1869 C.3     1  UNL1        0.1606
     32 C         144.5757  142.2913  156.4505 C.3     1  UNL1        0.1173
     33 C         145.8369  141.4919  156.5928 C.3     1  UNL1        0.1556
     34 O         145.8209  140.0139  156.3378 O.3     1  UNL1       -0.3805
     35 H         145.2745  139.5759  157.0090 H       1  UNL1        0.2105
@<TRIPOS>BOND
     1    24    25    1
     2    25    23    1
     3    23    21    1
     4    21    22    2
     5    21     1    1
     6     1     2    2
     7     2    26    1
     8    26    27    1
     9    27    28    1
    10    28    29    1
    11    29    30    1
    12    30    31    1
    13    31    32    1
    14    32    33    1
    15    33    34    1
    16     2     3    1
    17     3     4    1
    18     4    16    1
    19    16    17   ar
    20    17    18   ar
    21    18    19   ar
    22    19    20   ar
    23     4     5    2
    24     5     6    1
    25     6     8    1
    26     8     9   ar
    27     9    10   ar
    28    10    11   ar
    29    11    12    1
    30    11    13   ar
    31    13    14   ar
    32    14    15    1
    33     6     1    1
    34    14     8   ar
    35    32    27    1
    36    20    16   ar
    37    34    35    1
    38     3     7    1
@<TRIPOS>MOLECULE
*****
 35 38 0 0 0
SMALL
GASTEIGER

@<TRIPOS>ATOM
      1 C         142.4207  142.0979  163.8682 C.2     1  UNL1        0.1397
      2 C         142.2199  142.1422  162.3824 C.2     1  UNL1        0.1355
      3 N         141.0745  141.4019  161.7579 N.pl3   1  UNL1       -0.1998
      4 C         140.1299  140.6172  162.6192 C.2     1  UNL1        0.3442
      5 N         140.3307  140.5728  164.1050 N.2     1  UNL1       -0.0580
      6 C         141.4761  141.3132  164.7295 C.3     1  UNL1        0.2695
      7 H         140.9427  141.4310  160.7827 H       1  UNL1        0.2983
      8 C         141.6769  141.2688  166.2154 C.ar    1  UNL1        0.0414
      9 C         142.5547  140.2148  166.8224 C.ar    1  UNL1        0.0019
     10 C         142.7555  140.1704  168.3082 C.ar    1  UNL1        0.0113
     11 C         142.0785  141.1800  169.1871 C.ar    1  UNL1        0.0585
     12 CL        142.2793  141.1356  170.6729 Cl      1  UNL1       -0.0822
     13 C         141.2006  142.2340  168.5801 C.ar    1  UNL1        0.0226
     14 C         140.9998  142.2784  167.0942 C.ar    1  UNL1        0.0589
     15 CL        140.1220  143.3324  166.4872 Cl      1  UNL1       -0.0824
     16 C         138.9845  139.8768  161.9948 C.ar    1  UNL1        0.1931
     17 N         138.0450  140.4182  160.9583 N.ar    1  UNL1       -0.2297
     18 C         137.0574  139.3411  160.6201 C.ar    1  UNL1        0.1067
     19 C         137.3865  138.1340  161.4475 C.ar    1  UNL1        0.0577
     20 S         138.5775  138.4651  162.2971 S.2     1  UNL1       -0.0586
     21 C         143.5661  142.8382  164.4926 C.2     1  UNL1        0.3447
     22 O         143.4505  144.3092  164.7623 O.2     1  UNL1       -0.2450
     23 O         144.8271  142.1076  164.8475 O.3     1  UNL1       -0.4455
     24 C         145.0842  139.5853  164.2799 C.3     1  UNL1        0.0513
     25 C         145.3449  141.0247  163.9479 C.3     1  UNL1        0.2089
     26 C         143.1645  142.9270  161.5209 C.3     1  UNL1        0.1405
     27 N         142.6500  143.6573  160.3161 N.3     1  UNL1       -0.2608
     28 C         143.1883  143.3309  158.9546 C.3     1  UNL1        0.1050
     29 C         142.6737  144.0613  157.7497 C.3     1  UNL1        0.1595
     30 O         141.6209  145.1181  157.9062 O.3     1  UNL1       -0.3508
     31 C         141.0826  145.4446  159.2677 C.3     1  UNL1        0.1606
     32 C         141.5971  144.7142  160.4726 C.3     1  UNL1        0.1173
     33 C         141.0588  145.0407  161.8341 C.3     1  UNL1        0.1556
     34 O         141.9355  145.7196  162.8443 O.3     1  UNL1       -0.3805
     35 H         142.6603  145.1255  163.0945 H       1  UNL1        0.2105
@<TRIPOS>BOND
     1    24    25    1
     2    25    23    1
     3    23    21    1
     4    21    22    2
     5    21     1    1
     6     1     2    2
     7     2    26    1
     8    26    27    1
     9    27    28    1
    10    28    29    1
    11    29    30    1
    12    30    31    1
    13    31    32    1
    14    32    33    1
    15    33    34    1
    16     2     3    1
    17     3     4    1
    18     4    16    1
    19    16    17   ar
    20    17    18   ar
    21    18    19   ar
    22    19    20   ar
    23     4     5    2
    24     5     6    1
    25     6     8    1
    26     8     9   ar
    27     9    10   ar
    28    10    11   ar
    29    11    12    1
    30    11    13   ar
    31    13    14   ar
    32    14    15    1
    33     6     1    1
    34    14     8   ar
    35    32    27    1
    36    20    16   ar
    37    34    35    1
    38     3     7    1
@<TRIPOS>MOLECULE
*****
 35 38 0 0 0
SMALL
GASTEIGER

@<TRIPOS>ATOM
      1 C         139.1742  140.7679  160.6340 C.2     1  UNL1        0.1397
      2 C         139.1861  140.0289  159.3288 C.2     1  UNL1        0.1355
      3 N         138.7693  140.7266  158.0680 N.pl3   1  UNL1       -0.1998
      4 C         138.3406  142.1633  158.1125 C.2     1  UNL1        0.3442
      5 N         138.3287  142.9023  159.4177 N.2     1  UNL1       -0.0580
      6 C         138.7455  142.2047  160.6784 C.3     1  UNL1        0.2695
      7 H         138.7772  140.2415  157.2113 H       1  UNL1        0.2983
      8 C         138.7335  142.9438  161.9837 C.ar    1  UNL1        0.0414
      9 C         137.5625  142.8089  162.9113 C.ar    1  UNL1        0.0019
     10 C         137.5505  143.5479  164.2165 C.ar    1  UNL1        0.0113
     11 C         138.7096  144.4219  164.5942 C.ar    1  UNL1        0.0585
     12 CL        138.6976  145.1610  165.8994 Cl      1  UNL1       -0.0822
     13 C         139.8807  144.5568  163.6666 C.ar    1  UNL1        0.0226
     14 C         139.8926  143.8177  162.3613 C.ar    1  UNL1        0.0589
     15 CL        141.0637  143.9526  161.4338 Cl      1  UNL1       -0.0824
     16 C         137.9238  142.8610  156.8517 C.ar    1  UNL1        0.1931
     17 N         138.5747  144.0759  156.2598 N.ar    1  UNL1       -0.2297
     18 C         137.8362  144.4320  155.0037 C.ar    1  UNL1        0.1067
     19 C         136.7287  143.4372  154.8193 C.ar    1  UNL1        0.0577
     20 S         136.7829  142.4663  155.9614 S.2     1  UNL1       -0.0586
     21 C         139.5910  140.0703  161.8948 C.2     1  UNL1        0.3447
     22 O         141.0246  140.1086  162.3344 O.2     1  UNL1       -0.2450
     23 O         138.5742  139.3342  162.7159 O.3     1  UNL1       -0.4455
     24 C         139.0126  137.7080  164.6942 C.3     1  UNL1        0.0513
     25 C         138.8746  137.9541  163.2209 C.3     1  UNL1        0.2089
     26 C         139.6149  138.5921  159.2843 C.3     1  UNL1        0.1405
     27 N         140.4783  138.1016  158.1601 N.3     1  UNL1       -0.2608
     28 C         139.8483  137.5929  156.8974 C.3     1  UNL1        0.1050
     29 C         140.7118  137.1024  155.7732 C.3     1  UNL1        0.1595
     30 O         142.2053  137.1204  155.9118 O.3     1  UNL1       -0.3508
     31 C         142.8353  137.6291  157.1745 C.3     1  UNL1        0.1606
     32 C         141.9718  138.1196  158.2986 C.3     1  UNL1        0.1173
     33 C         142.6018  138.6283  159.5613 C.3     1  UNL1        0.1556
     34 O         142.7010  140.1045  159.8081 O.3     1  UNL1       -0.3805
     35 H         143.2997  140.5018  159.1566 H       1  UNL1        0.2105
@<TRIPOS>BOND
     1    24    25    1
     2    25    23    1
     3    23    21    1
     4    21    22    2
     5    21     1    1
     6     1     2    2
     7     2    26    1
     8    26    27    1
     9    27    28    1
    10    28    29    1
    11    29    30    1
    12    30    31    1
    13    31    32    1
    14    32    33    1
    15    33    34    1
    16     2     3    1
    17     3     4    1
    18     4    16    1
    19    16    17   ar
    20    17    18   ar
    21    18    19   ar
    22    19    20   ar
    23     4     5    2
    24     5     6    1
    25     6     8    1
    26     8     9   ar
    27     9    10   ar
    28    10    11   ar
    29    11    12    1
    30    11    13   ar
    31    13    14   ar
    32    14    15    1
    33     6     1    1
    34    14     8   ar
    35    32    27    1
    36    20    16   ar
    37    34    35    1
    38     3     7    1
@<TRIPOS>MOLECULE
*****
 35 38 0 0 0
SMALL
GASTEIGER

@<TRIPOS>ATOM
      1 C         142.5904  140.5517  163.9230 C.2     1  UNL1        0.1397
      2 C         142.9668  140.9188  162.5182 C.2     1  UNL1        0.1355
      3 N         142.3754  142.1396  161.8779 N.pl3   1  UNL1       -0.1998
      4 C         141.4075  142.9932  162.6424 C.2     1  UNL1        0.3442
      5 N         141.0311  142.6260  164.0472 N.2     1  UNL1       -0.0580
      6 C         141.6225  141.4053  164.6875 C.3     1  UNL1        0.2695
      7 H         142.6225  142.3805  160.9559 H       1  UNL1        0.2983
      8 C         141.2460  141.0381  166.0923 C.ar    1  UNL1        0.0414
      9 C         140.0201  140.2127  166.3489 C.ar    1  UNL1        0.0019
     10 C         139.6436  139.8456  167.7536 C.ar    1  UNL1        0.0113
     11 C         140.4930  140.3039  168.9020 C.ar    1  UNL1        0.0585
     12 CL        140.1165  139.9367  170.3067 Cl      1  UNL1       -0.0822
     13 C         141.7189  141.1293  168.6454 C.ar    1  UNL1        0.0226
     14 C         142.0954  141.4964  167.2405 C.ar    1  UNL1        0.0589
     15 CL        143.3214  142.3218  166.9840 Cl      1  UNL1       -0.0824
     16 C         140.8161  144.2139  162.0021 C.ar    1  UNL1        0.1931
     17 N         140.0187  145.2764  162.6988 N.ar    1  UNL1       -0.2297
     18 C         139.6280  146.3057  161.6800 C.ar    1  UNL1        0.1067
     19 C         140.1839  145.8794  160.3537 C.ar    1  UNL1        0.0577
     20 S         140.9181  144.5866  160.5528 S.2     1  UNL1       -0.0586
     21 C         143.1818  139.3309  164.5632 C.2     1  UNL1        0.3447
     22 O         144.5801  139.3707  165.1046 O.2     1  UNL1       -0.2450
     23 O         142.3749  138.0703  164.6622 O.3     1  UNL1       -0.4455
     24 C         139.9716  137.6345  163.7766 C.3     1  UNL1        0.0513
     25 C         141.4530  137.6803  163.5451 C.3     1  UNL1        0.2089
     26 C         143.9347  140.0652  161.7536 C.3     1  UNL1        0.1405
     27 N         143.5759  139.5657  160.3855 N.3     1  UNL1       -0.2608
     28 C         142.9692  138.2040  160.2194 C.3     1  UNL1        0.1050
     29 C         142.6104  137.7046  158.8512 C.3     1  UNL1        0.1595
     30 O         142.8582  138.5669  157.6492 O.3     1  UNL1       -0.3508
     31 C         143.4649  139.9286  157.8153 C.3     1  UNL1        0.1606
     32 C         143.8238  140.4281  159.1834 C.3     1  UNL1        0.1173
     33 C         144.4305  141.7898  159.3494 C.3     1  UNL1        0.1556
     34 O         145.1722  142.4244  158.2106 O.3     1  UNL1       -0.3805
     35 H         145.9735  141.9117  158.0209 H       1  UNL1        0.2105
@<TRIPOS>BOND
     1    24    25    1
     2    25    23    1
     3    23    21    1
     4    21    22    2
     5    21     1    1
     6     1     2    2
     7     2    26    1
     8    26    27    1
     9    27    28    1
    10    28    29    1
    11    29    30    1
    12    30    31    1
    13    31    32    1
    14    32    33    1
    15    33    34    1
    16     2     3    1
    17     3     4    1
    18     4    16    1
    19    16    17   ar
    20    17    18   ar
    21    18    19   ar
    22    19    20   ar
    23     4     5    2
    24     5     6    1
    25     6     8    1
    26     8     9   ar
    27     9    10   ar
    28    10    11   ar
    29    11    12    1
    30    11    13   ar
    31    13    14   ar
    32    14    15    1
    33     6     1    1
    34    14     8   ar
    35    32    27    1
    36    20    16   ar
    37    34    35    1
    38     3     7    1
