@<TRIPOS>MOLECULE
*****
 36 40 0 0 0
SMALL
GASTEIGER

@<TRIPOS>ATOM
      1 C         138.3462  140.8368  160.0385 C.ar    1  UNL1        0.2046
      2 N         137.6837  141.3741  161.2724 N.ar    1  UNL1       -0.1998
      3 C         137.8587  140.6693  162.5850 C.ar    1  UNL1        0.1389
      4 N         137.1962  141.2065  163.8188 N.pl3   1  UNL1       -0.3420
      5 C         138.6962  139.4274  162.6636 C.ar    1  UNL1        0.1169
      6 C         139.3587  138.8902  161.4296 C.ar    1  UNL1        0.2716
      7 O         140.1962  137.6483  161.5083 O.2     1  UNL1       -0.2663
      8 N         139.1837  139.5949  160.1172 N.ar    1  UNL1       -0.2662
      9 C         139.8462  139.0577  158.8832 C.3     1  UNL1        0.1363
     10 H         136.6465  142.0216  163.7672 H       1  UNL1        0.1437
     11 H         137.3110  140.7440  164.6803 H       1  UNL1        0.1437
     12 C         136.1791  143.6028  152.6450 C.3     1  UNL1        0.0335
     13 C         136.9860  143.5745  153.9090 C.3     1  UNL1        0.1294
     14 O         138.1182  144.4965  154.2531 O.3     1  UNL1       -0.3548
     15 C         138.6344  144.1111  155.6078 C.3     1  UNL1        0.1434
     16 C         137.8214  142.9510  156.1009 C.3     1  UNL1        0.0460
     17 C         138.8892  143.3971  157.0552 C.3     1  UNL1        0.0254
     18 C         139.0642  142.6924  158.3677 C.3     1  UNL1        0.0937
     19 N         138.1712  141.5416  158.7259 N.pl3   1  UNL1       -0.2794
     20 C         137.1033  141.0955  157.7717 C.3     1  UNL1        0.0937
     21 C         136.9284  141.8003  156.4592 C.3     1  UNL1        0.0254
     22 C         136.8026  142.6194  155.0510 C.3     1  UNL1        0.0807
     23 N         135.7800  141.5248  155.1294 N.3     1  UNL1       -0.3202
     24 H         135.8792  141.0297  156.0156 H       1  UNL1        0.1189
     25 H         135.9204  140.8725  154.3579 H       1  UNL1        0.1189
     26 S         138.8712  138.7227  163.9761 S.3     1  UNL1       -0.0785
     27 C         139.8487  139.2483  164.9851 C.ar    1  UNL1        0.0429
     28 C         141.2418  139.6095  164.5622 C.ar    1  UNL1        0.0280
     29 C         142.2194  140.1351  165.5713 C.ar    1  UNL1        0.0990
     30 N         141.8038  140.2996  167.0031 N.ar    1  UNL1       -0.2473
     31 C         140.4107  139.9384  167.4260 C.ar    1  UNL1        0.0696
     32 C         139.4332  139.4128  166.4170 C.ar    1  UNL1        0.0771
     33 CL        138.0401  139.0516  166.8399 Cl      1  UNL1       -0.0805
     34 C         139.9952  140.1029  168.8578 C.3     1  UNL1        0.0412
     35 C         138.9957  140.5676  169.8752 C.3     1  UNL1        0.0063
     36 C         140.2749  139.9231  170.3205 C.3     1  UNL1        0.0063
@<TRIPOS>BOND
     1    13    12    1
     2    13    14    1
     3    14    15    1
     4    15    16    1
     5    16    17    1
     6    17    18    1
     7    18    19    1
     8    19     1    1
     9     1     2   ar
    10     2     3   ar
    11     3     4    1
    12     3     5   ar
    13     5    26    1
    14    26    27    1
    15    27    28   ar
    16    28    29   ar
    17    29    30   ar
    18    30    31   ar
    19    31    34    1
    20    34    35    1
    21    35    36    1
    22    31    32   ar
    23    32    33    1
    24     5     6   ar
    25     6     7    2
    26     6     8   ar
    27     8     9    1
    28    19    20    1
    29    20    21    1
    30    16    22    1
    31    22    23    1
    32    22    13    1
    33    21    16    1
    34     8     1   ar
    35    32    27   ar
    36    36    34    1
    37     4    10    1
    38     4    11    1
    39    23    24    1
    40    23    25    1
@<TRIPOS>MOLECULE
*****
 36 40 0 0 0
SMALL
GASTEIGER

@<TRIPOS>ATOM
      1 C         140.3291  144.6822  159.2166 C.ar    1  UNL1        0.2046
      2 N         140.7738  145.5699  160.3410 N.ar    1  UNL1       -0.1998
      3 C         140.3164  145.2916  161.7422 C.ar    1  UNL1        0.1389
      4 N         140.7611  146.1793  162.8665 N.pl3   1  UNL1       -0.3420
      5 C         139.4142  144.1257  162.0190 C.ar    1  UNL1        0.1169
      6 C         138.9695  143.2379  160.8945 C.ar    1  UNL1        0.2716
      7 O         138.0674  142.0720  161.1713 O.2     1  UNL1       -0.2663
      8 N         139.4270  143.5162  159.4934 N.ar    1  UNL1       -0.2662
      9 C         138.9823  142.6285  158.3690 C.3     1  UNL1        0.1363
     10 H         141.3532  146.9446  162.6849 H       1  UNL1        0.1437
     11 H         140.4608  145.9967  163.7862 H       1  UNL1        0.1437
     12 C         144.0908  145.2365  151.9672 C.3     1  UNL1        0.0335
     13 C         143.0100  145.5160  152.9689 C.3     1  UNL1        0.1294
     14 O         141.8005  146.3745  152.7446 O.3     1  UNL1       -0.3548
     15 C         140.9918  146.3752  154.0080 C.3     1  UNL1        0.1434
     16 C         141.7013  145.5170  155.0130 C.3     1  UNL1        0.0460
     17 C         140.4253  146.1214  155.5194 C.3     1  UNL1        0.0254
     18 C         139.9679  145.8431  156.9205 C.3     1  UNL1        0.0937
     19 N         140.7866  144.9605  157.8154 N.pl3   1  UNL1       -0.2794
     20 C         142.0626  144.3561  157.3091 C.3     1  UNL1        0.0937
     21 C         142.5200  144.6344  155.9079 C.3     1  UNL1        0.0254
     22 C         142.9487  144.9860  154.3708 C.3     1  UNL1        0.0807
     23 N         143.9575  144.0836  155.0172 N.3     1  UNL1       -0.3202
     24 H         143.6676  143.8795  155.9736 H       1  UNL1        0.1189
     25 H         144.8675  144.5440  155.0287 H       1  UNL1        0.1189
     26 S         138.9568  143.8474  163.4201 S.3     1  UNL1       -0.0785
     27 C         139.6430  142.7936  164.2377 C.ar    1  UNL1        0.0429
     28 C         141.0822  142.9636  164.6248 C.ar    1  UNL1        0.0280
     29 C         141.7685  141.9097  165.4424 C.ar    1  UNL1        0.0990
     30 N         141.0156  140.6859  165.8730 N.ar    1  UNL1       -0.2473
     31 C         139.5764  140.5160  165.4860 C.ar    1  UNL1        0.0696
     32 C         138.8901  141.5697  164.6684 C.ar    1  UNL1        0.0771
     33 CL        137.4509  141.3998  164.2813 Cl      1  UNL1       -0.0805
     34 C         138.8234  139.2922  165.9166 C.3     1  UNL1        0.0412
     35 C         137.8383  138.6283  166.8324 C.3     1  UNL1        0.0063
     36 C         138.5044  137.8364  165.7465 C.3     1  UNL1        0.0063
@<TRIPOS>BOND
     1    13    12    1
     2    13    14    1
     3    14    15    1
     4    15    16    1
     5    16    17    1
     6    17    18    1
     7    18    19    1
     8    19     1    1
     9     1     2   ar
    10     2     3   ar
    11     3     4    1
    12     3     5   ar
    13     5    26    1
    14    26    27    1
    15    27    28   ar
    16    28    29   ar
    17    29    30   ar
    18    30    31   ar
    19    31    34    1
    20    34    35    1
    21    35    36    1
    22    31    32   ar
    23    32    33    1
    24     5     6   ar
    25     6     7    2
    26     6     8   ar
    27     8     9    1
    28    19    20    1
    29    20    21    1
    30    16    22    1
    31    22    23    1
    32    22    13    1
    33    21    16    1
    34     8     1   ar
    35    32    27   ar
    36    36    34    1
    37     4    10    1
    38     4    11    1
    39    23    24    1
    40    23    25    1
@<TRIPOS>MOLECULE
*****
 36 40 0 0 0
SMALL
GASTEIGER

@<TRIPOS>ATOM
      1 C         141.6343  143.8341  160.7883 C.ar    1  UNL1        0.2046
      2 N         143.0891  143.4692  160.7715 N.ar    1  UNL1       -0.1998
      3 C         143.7907  143.1241  162.0517 C.ar    1  UNL1        0.1389
      4 N         145.2455  142.7592  162.0349 N.pl3   1  UNL1       -0.3420
      5 C         143.0373  143.1439  163.3487 C.ar    1  UNL1        0.1169
      6 C         141.5824  143.5089  163.3654 C.ar    1  UNL1        0.2716
      7 O         140.8290  143.5287  164.6623 O.2     1  UNL1       -0.2663
      8 N         140.8810  143.8539  162.0852 N.ar    1  UNL1       -0.2662
      9 C         139.4261  144.2189  162.1019 C.3     1  UNL1        0.1363
     10 H         145.7399  142.7462  161.1837 H       1  UNL1        0.1437
     11 H         145.7059  142.5327  162.8752 H       1  UNL1        0.1437
     12 C         137.2323  144.1840  153.8954 C.3     1  UNL1        0.0335
     13 C         138.1513  144.7130  154.9563 C.3     1  UNL1        0.1294
     14 O         138.7494  146.0880  154.9992 O.3     1  UNL1       -0.3548
     15 C         139.6014  146.1846  156.2301 C.3     1  UNL1        0.1434
     16 C         139.5299  144.8694  156.9478 C.3     1  UNL1        0.0460
     17 C         140.3985  145.8876  157.6251 C.3     1  UNL1        0.0254
     18 C         141.1000  145.5425  158.9052 C.3     1  UNL1        0.0937
     19 N         140.9328  144.1792  159.5081 N.pl3   1  UNL1       -0.2794
     20 C         140.0642  143.1610  158.8308 C.3     1  UNL1        0.0937
     21 C         139.3627  143.5061  157.5507 C.3     1  UNL1        0.0254
     22 C         138.6337  143.9599  156.1605 C.3     1  UNL1        0.0807
     23 N         138.2817  142.5456  156.5153 N.3     1  UNL1       -0.3202
     24 H         138.7482  142.2871  157.3848 H       1  UNL1        0.1189
     25 H         138.5858  141.9218  155.7678 H       1  UNL1        0.1189
     26 S         143.7387  142.7989  164.6288 S.3     1  UNL1       -0.0785
     27 C         143.6081  141.4213  165.2078 C.ar    1  UNL1        0.0429
     28 C         144.0770  140.2310  164.4247 C.ar    1  UNL1        0.0280
     29 C         143.9463  138.8534  165.0037 C.ar    1  UNL1        0.0990
     30 N         143.3468  138.6662  166.3659 N.ar    1  UNL1       -0.2473
     31 C         142.8779  139.8565  167.1490 C.ar    1  UNL1        0.0696
     32 C         143.0085  141.2340  166.5700 C.ar    1  UNL1        0.0771
     33 CL        142.5396  142.4244  167.3531 Cl      1  UNL1       -0.0805
     34 C         142.2783  139.6693  168.5111 C.3     1  UNL1        0.0412
     35 C         142.4054  139.2155  169.9352 C.3     1  UNL1        0.0063
     36 C         141.1128  139.7987  169.4464 C.3     1  UNL1        0.0063
@<TRIPOS>BOND
     1    13    12    1
     2    13    14    1
     3    14    15    1
     4    15    16    1
     5    16    17    1
     6    17    18    1
     7    18    19    1
     8    19     1    1
     9     1     2   ar
    10     2     3   ar
    11     3     4    1
    12     3     5   ar
    13     5    26    1
    14    26    27    1
    15    27    28   ar
    16    28    29   ar
    17    29    30   ar
    18    30    31   ar
    19    31    34    1
    20    34    35    1
    21    35    36    1
    22    31    32   ar
    23    32    33    1
    24     5     6   ar
    25     6     7    2
    26     6     8   ar
    27     8     9    1
    28    19    20    1
    29    20    21    1
    30    16    22    1
    31    22    23    1
    32    22    13    1
    33    21    16    1
    34     8     1   ar
    35    32    27   ar
    36    36    34    1
    37     4    10    1
    38     4    11    1
    39    23    24    1
    40    23    25    1
@<TRIPOS>MOLECULE
*****
 36 40 0 0 0
SMALL
GASTEIGER

@<TRIPOS>ATOM
      1 C         142.5778  142.0198  160.7067 C.ar    1  UNL1        0.2046
      2 N         141.2506  142.7061  160.5744 N.ar    1  UNL1       -0.1998
      3 C         140.4058  142.9462  161.7904 C.ar    1  UNL1        0.1389
      4 N         139.0786  143.6325  161.6581 N.pl3   1  UNL1       -0.3420
      5 C         140.8882  142.4999  163.1388 C.ar    1  UNL1        0.1169
      6 C         142.2155  141.8136  163.2711 C.ar    1  UNL1        0.2716
      7 O         142.6979  141.3673  164.6195 O.2     1  UNL1       -0.2663
      8 N         143.0602  141.5735  162.0551 N.ar    1  UNL1       -0.2662
      9 C         144.3874  140.8872  162.1874 C.3     1  UNL1        0.1363
     10 H         138.7620  143.9254  160.7731 H       1  UNL1        0.1437
     11 H         138.5242  143.7900  162.4562 H       1  UNL1        0.1437
     12 C         148.0603  141.9816  154.6279 C.3     1  UNL1        0.0335
     13 C         146.8556  141.5027  155.3824 C.3     1  UNL1        0.1294
     14 O         145.9687  140.3575  154.9923 O.3     1  UNL1       -0.3548
     15 C         144.8912  140.2320  156.0284 C.3     1  UNL1        0.1434
     16 C         145.1121  141.2996  157.0587 C.3     1  UNL1        0.0460
     17 C         143.9217  140.4279  157.3289 C.3     1  UNL1        0.0254
     18 C         143.0769  140.6680  158.5449 C.3     1  UNL1        0.0937
     19 N         143.4226  141.7797  159.4907 N.pl3   1  UNL1       -0.2794
     20 C         144.6130  142.6514  159.2205 C.3     1  UNL1        0.0937
     21 C         145.4578  142.4113  158.0045 C.3     1  UNL1        0.0254
     22 C         146.3262  142.0849  156.6594 C.3     1  UNL1        0.0807
     23 N         146.9086  143.2481  157.4062 N.3     1  UNL1       -0.3202
     24 H         146.3498  143.4313  158.2396 H       1  UNL1        0.1189
     25 H         146.9052  144.0732  156.8065 H       1  UNL1        0.1189
     26 S         140.0435  142.7399  164.3548 S.3     1  UNL1       -0.0785
     27 C         139.5580  141.5794  165.1718 C.ar    1  UNL1        0.0429
     28 C         138.6691  140.5438  164.5495 C.ar    1  UNL1        0.0280
     29 C         138.1837  139.3832  165.3665 C.ar    1  UNL1        0.0990
     30 N         138.5872  139.2582  166.8057 N.ar    1  UNL1       -0.2473
     31 C         139.4761  140.2939  167.4281 C.ar    1  UNL1        0.0696
     32 C         139.9616  141.4544  166.6111 C.ar    1  UNL1        0.0771
     33 CL        140.8505  142.4900  167.2334 Cl      1  UNL1       -0.0805
     34 C         139.8797  140.1689  168.8673 C.3     1  UNL1        0.0412
     35 C         139.5472  140.2905  170.3249 C.3     1  UNL1        0.0063
     36 C         140.9111  139.8309  169.9026 C.3     1  UNL1        0.0063
@<TRIPOS>BOND
     1    13    12    1
     2    13    14    1
     3    14    15    1
     4    15    16    1
     5    16    17    1
     6    17    18    1
     7    18    19    1
     8    19     1    1
     9     1     2   ar
    10     2     3   ar
    11     3     4    1
    12     3     5   ar
    13     5    26    1
    14    26    27    1
    15    27    28   ar
    16    28    29   ar
    17    29    30   ar
    18    30    31   ar
    19    31    34    1
    20    34    35    1
    21    35    36    1
    22    31    32   ar
    23    32    33    1
    24     5     6   ar
    25     6     7    2
    26     6     8   ar
    27     8     9    1
    28    19    20    1
    29    20    21    1
    30    16    22    1
    31    22    23    1
    32    22    13    1
    33    21    16    1
    34     8     1   ar
    35    32    27   ar
    36    36    34    1
    37     4    10    1
    38     4    11    1
    39    23    24    1
    40    23    25    1
@<TRIPOS>MOLECULE
*****
 36 40 0 0 0
SMALL
GASTEIGER

@<TRIPOS>ATOM
      1 C         140.6756  139.0604  162.3362 C.ar    1  UNL1        0.2046
      2 N         141.6503  137.9825  161.9647 N.ar    1  UNL1       -0.1998
      3 C         142.1417  137.8701  160.5519 C.ar    1  UNL1        0.1389
      4 N         143.1164  136.7922  160.1804 N.pl3   1  UNL1       -0.3420
      5 C         141.6584  138.8356  159.5107 C.ar    1  UNL1        0.1169
      6 C         140.6837  139.9135  159.8822 C.ar    1  UNL1        0.2716
      7 O         140.2004  140.8791  158.8410 O.2     1  UNL1       -0.2663
      8 N         140.1923  140.0259  161.2950 N.ar    1  UNL1       -0.2662
      9 C         139.2176  141.1039  161.6666 C.3     1  UNL1        0.1363
     10 H         143.4336  136.1585  160.8638 H       1  UNL1        0.1437
     11 H         143.4389  136.7184  159.2532 H       1  UNL1        0.1437
     12 C         139.3119  140.6270  170.2544 C.3     1  UNL1        0.0335
     13 C         139.0263  140.0144  168.9154 C.3     1  UNL1        0.1294
     14 O         137.8639  139.1268  168.5817 O.3     1  UNL1       -0.3548
     15 C         137.9722  138.7456  167.1349 C.3     1  UNL1        0.1434
     16 C         139.2013  139.3976  166.5745 C.3     1  UNL1        0.0460
     17 C         138.4405  138.5727  165.5791 C.3     1  UNL1        0.0254
     18 C         138.9319  138.4604  164.1664 C.3     1  UNL1        0.0937
     19 N         140.1842  139.1728  163.7490 N.pl3   1  UNL1       -0.2794
     20 C         140.9450  139.9977  164.7443 C.3     1  UNL1        0.0937
     21 C         140.4536  140.1101  166.1571 C.3     1  UNL1        0.0254
     22 C         139.8528  140.1818  167.6749 C.3     1  UNL1        0.0807
     23 N         141.1100  140.9911  167.5556 N.3     1  UNL1       -0.3202
     24 H         141.4643  140.9302  166.6011 H       1  UNL1        0.1189
     25 H         141.8106  140.6283  168.2021 H       1  UNL1        0.1189
     26 S         142.1498  138.7232  158.0979 S.3     1  UNL1       -0.0785
     27 C         141.3512  137.9579  157.0848 C.ar    1  UNL1        0.0429
     28 C         140.0406  138.5009  156.5973 C.ar    1  UNL1        0.0280
     29 C         139.2420  137.7355  155.5841 C.ar    1  UNL1        0.0990
     30 N         139.7539  136.4273  155.0584 N.ar    1  UNL1       -0.2473
     31 C         141.0645  135.8843  155.5460 C.ar    1  UNL1        0.0696
     32 C         141.8631  136.6496  156.5591 C.ar    1  UNL1        0.0771
     33 CL        143.1736  136.1066  157.0466 Cl      1  UNL1       -0.0805
     34 C         141.5764  134.5760  155.0204 C.3     1  UNL1        0.0412
     35 C         142.3814  133.8049  154.0168 C.3     1  UNL1        0.0063
     36 C         141.6580  133.0812  155.1136 C.3     1  UNL1        0.0063
@<TRIPOS>BOND
     1    13    12    1
     2    13    14    1
     3    14    15    1
     4    15    16    1
     5    16    17    1
     6    17    18    1
     7    18    19    1
     8    19     1    1
     9     1     2   ar
    10     2     3   ar
    11     3     4    1
    12     3     5   ar
    13     5    26    1
    14    26    27    1
    15    27    28   ar
    16    28    29   ar
    17    29    30   ar
    18    30    31   ar
    19    31    34    1
    20    34    35    1
    21    35    36    1
    22    31    32   ar
    23    32    33    1
    24     5     6   ar
    25     6     7    2
    26     6     8   ar
    27     8     9    1
    28    19    20    1
    29    20    21    1
    30    16    22    1
    31    22    23    1
    32    22    13    1
    33    21    16    1
    34     8     1   ar
    35    32    27   ar
    36    36    34    1
    37     4    10    1
    38     4    11    1
    39    23    24    1
    40    23    25    1
@<TRIPOS>MOLECULE
*****
 36 40 0 0 0
SMALL
GASTEIGER

@<TRIPOS>ATOM
      1 C         142.9765  138.1445  156.4590 C.ar    1  UNL1        0.2046
      2 N         144.2955  138.8567  156.4076 N.ar    1  UNL1       -0.1998
      3 C         144.3827  140.3028  156.7969 C.ar    1  UNL1        0.1389
      4 N         145.7018  141.0151  156.7455 N.pl3   1  UNL1       -0.3420
      5 C         143.1508  141.0365  157.2375 C.ar    1  UNL1        0.1169
      6 C         141.8317  140.3241  157.2888 C.ar    1  UNL1        0.2716
      7 O         140.5998  141.0578  157.7294 O.2     1  UNL1       -0.2663
      8 N         141.7446  138.8781  156.8996 N.ar    1  UNL1       -0.2662
      9 C         140.4255  138.1658  156.9510 C.3     1  UNL1        0.1363
     10 H         146.5103  140.5335  156.4563 H       1  UNL1        0.1437
     11 H         145.7590  141.9641  157.0010 H       1  UNL1        0.1437
     12 C         142.7198  129.9791  155.9366 C.3     1  UNL1        0.0335
     13 C         142.6771  131.3825  155.4089 C.3     1  UNL1        0.1294
     14 O         142.4843  131.7800  153.9754 O.3     1  UNL1       -0.3548
     15 C         142.5076  133.2782  153.9027 C.3     1  UNL1        0.1434
     16 C         142.7149  133.8065  155.2912 C.3     1  UNL1        0.0460
     17 C         142.5915  134.8737  154.2444 C.3     1  UNL1        0.0254
     18 C         142.6787  136.3197  154.6337 C.3     1  UNL1        0.0937
     19 N         142.8893  136.6984  156.0697 N.pl3   1  UNL1       -0.2794
     20 C         143.0126  135.6312  157.1165 C.3     1  UNL1        0.0937
     21 C         142.9254  134.1852  156.7272 C.3     1  UNL1        0.0254
     22 C         142.8196  132.6349  156.2221 C.3     1  UNL1        0.0807
     23 N         143.0299  132.7037  157.7056 N.3     1  UNL1       -0.3202
     24 H         143.0925  133.6798  157.9952 H       1  UNL1        0.1189
     25 H         143.8946  132.2206  157.9493 H       1  UNL1        0.1189
     26 S         143.2380  142.4824  157.6267 S.3     1  UNL1       -0.0785
     27 C         143.3125  142.8661  159.0749 C.ar    1  UNL1        0.0429
     28 C         144.4764  142.4208  159.9098 C.ar    1  UNL1        0.0280
     29 C         144.5508  142.8045  161.3580 C.ar    1  UNL1        0.0990
     30 N         143.4614  143.6334  161.9713 N.ar    1  UNL1       -0.2473
     31 C         142.2975  144.0786  161.1363 C.ar    1  UNL1        0.0696
     32 C         142.2230  143.6950  159.6882 C.ar    1  UNL1        0.0771
     33 CL        141.0591  144.1402  158.8532 Cl      1  UNL1       -0.0805
     34 C         141.2081  144.9075  161.7496 C.3     1  UNL1        0.0412
     35 C         140.0853  145.8912  161.6027 C.3     1  UNL1        0.0063
     36 C         140.4439  145.3594  162.9586 C.3     1  UNL1        0.0063
@<TRIPOS>BOND
     1    13    12    1
     2    13    14    1
     3    14    15    1
     4    15    16    1
     5    16    17    1
     6    17    18    1
     7    18    19    1
     8    19     1    1
     9     1     2   ar
    10     2     3   ar
    11     3     4    1
    12     3     5   ar
    13     5    26    1
    14    26    27    1
    15    27    28   ar
    16    28    29   ar
    17    29    30   ar
    18    30    31   ar
    19    31    34    1
    20    34    35    1
    21    35    36    1
    22    31    32   ar
    23    32    33    1
    24     5     6   ar
    25     6     7    2
    26     6     8   ar
    27     8     9    1
    28    19    20    1
    29    20    21    1
    30    16    22    1
    31    22    23    1
    32    22    13    1
    33    21    16    1
    34     8     1   ar
    35    32    27   ar
    36    36    34    1
    37     4    10    1
    38     4    11    1
    39    23    24    1
    40    23    25    1
@<TRIPOS>MOLECULE
*****
 36 40 0 0 0
SMALL
GASTEIGER

@<TRIPOS>ATOM
      1 C         142.2703  138.3911  159.9961 C.ar    1  UNL1        0.2046
      2 N         141.8110  137.6509  161.2172 N.ar    1  UNL1       -0.1998
      3 C         142.4046  137.9724  162.5567 C.ar    1  UNL1        0.1389
      4 N         141.9452  137.2321  163.7778 N.pl3   1  UNL1       -0.3420
      5 C         143.4575  139.0341  162.6752 C.ar    1  UNL1        0.1169
      6 C         143.9168  139.7744  161.4540 C.ar    1  UNL1        0.2716
      7 O         144.9697  140.8361  161.5724 O.2     1  UNL1       -0.2663
      8 N         143.3232  139.4529  160.1145 N.ar    1  UNL1       -0.2662
      9 C         143.7826  140.1931  158.8934 C.3     1  UNL1        0.1363
     10 H         141.2542  136.5353  163.7000 H       1  UNL1        0.1437
     11 H         142.3348  137.4431  164.6569 H       1  UNL1        0.1437
     12 C         137.8369  137.6584  153.1537 C.3     1  UNL1        0.0335
     13 C         138.9975  137.3854  154.0638 C.3     1  UNL1        0.1294
     14 O         140.1551  136.4783  153.7685 O.3     1  UNL1       -0.3548
     15 C         141.0774  136.5038  154.9513 C.3     1  UNL1        0.1434
     16 C         140.4897  137.4266  155.9775 C.3     1  UNL1        0.0460
     17 C         141.7890  136.8019  156.3916 C.3     1  UNL1        0.0254
     18 C         142.3825  137.1234  157.7311 C.3     1  UNL1        0.0937
     19 N         141.6767  138.0696  158.6565 N.pl3   1  UNL1       -0.2794
     20 C         140.3774  138.6943  158.2425 C.3     1  UNL1        0.0937
     21 C         139.7839  138.3728  156.9030 C.3     1  UNL1        0.0254
     22 C         139.2042  137.9714  155.4290 C.3     1  UNL1        0.0807
     23 N         138.2867  138.9333  156.1238 N.3     1  UNL1       -0.3202
     24 H         138.6700  139.1677  157.0395 H       1  UNL1        0.1189
     25 H         137.3685  138.5044  156.2391 H       1  UNL1        0.1189
     26 S         144.0511  139.3556  164.0146 S.3     1  UNL1       -0.0785
     27 C         143.2839  140.1948  164.9930 C.ar    1  UNL1        0.0429
     28 C         142.7896  141.5527  164.5907 C.ar    1  UNL1        0.0280
     29 C         142.0224  142.3918  165.5692 C.ar    1  UNL1        0.0990
     30 N         141.7495  141.8730  166.9498 N.ar    1  UNL1       -0.2473
     31 C         142.2437  140.5151  167.3521 C.ar    1  UNL1        0.0696
     32 C         143.0109  139.6760  166.3738 C.ar    1  UNL1        0.0771
     33 CL        143.5051  138.3181  166.7761 Cl      1  UNL1       -0.0805
     34 C         141.9707  139.9963  168.7328 C.3     1  UNL1        0.0412
     35 C         141.0107  139.7292  169.8539 C.3     1  UNL1        0.0063
     36 C         142.4580  139.3649  170.0032 C.3     1  UNL1        0.0063
@<TRIPOS>BOND
     1    13    12    1
     2    13    14    1
     3    14    15    1
     4    15    16    1
     5    16    17    1
     6    17    18    1
     7    18    19    1
     8    19     1    1
     9     1     2   ar
    10     2     3   ar
    11     3     4    1
    12     3     5   ar
    13     5    26    1
    14    26    27    1
    15    27    28   ar
    16    28    29   ar
    17    29    30   ar
    18    30    31   ar
    19    31    34    1
    20    34    35    1
    21    35    36    1
    22    31    32   ar
    23    32    33    1
    24     5     6   ar
    25     6     7    2
    26     6     8   ar
    27     8     9    1
    28    19    20    1
    29    20    21    1
    30    16    22    1
    31    22    23    1
    32    22    13    1
    33    21    16    1
    34     8     1   ar
    35    32    27   ar
    36    36    34    1
    37     4    10    1
    38     4    11    1
    39    23    24    1
    40    23    25    1
@<TRIPOS>MOLECULE
*****
 36 40 0 0 0
SMALL
GASTEIGER

@<TRIPOS>ATOM
      1 C         138.8444  142.1746  160.1122 C.ar    1  UNL1        0.2046
      2 N         138.0199  143.0220  161.0352 N.ar    1  UNL1       -0.1998
      3 C         138.3665  143.0994  162.4926 C.ar    1  UNL1        0.1389
      4 N         137.5420  143.9468  163.4157 N.pl3   1  UNL1       -0.3420
      5 C         139.5377  142.3295  163.0269 C.ar    1  UNL1        0.1169
      6 C         140.3623  141.4821  162.1037 C.ar    1  UNL1        0.2716
      7 O         141.5335  140.7121  162.6380 O.2     1  UNL1       -0.2663
      8 N         140.0156  141.4047  160.6464 N.ar    1  UNL1       -0.2662
      9 C         140.8402  140.5573  159.7233 C.3     1  UNL1        0.1363
     10 H         136.7733  144.4521  163.0650 H       1  UNL1        0.1437
     11 H         137.7695  143.9976  164.3722 H       1  UNL1        0.1437
     12 C         136.1198  140.4093  152.5975 C.3     1  UNL1        0.0335
     13 C         136.8707  141.2021  153.6257 C.3     1  UNL1        0.1294
     14 O         137.6714  142.4444  153.3692 O.3     1  UNL1       -0.3548
     15 C         138.2485  142.9019  154.6761 C.3     1  UNL1        0.1434
     16 C         137.8045  141.9424  155.7401 C.3     1  UNL1        0.0460
     17 C         138.6712  143.0569  156.2467 C.3     1  UNL1        0.0254
     18 C         139.0178  143.1343  157.7040 C.3     1  UNL1        0.0937
     19 N         138.4977  142.0972  158.6548 N.pl3   1  UNL1       -0.2794
     20 C         137.6311  140.9826  158.1482 C.3     1  UNL1        0.0937
     21 C         137.2845  140.9052  156.6909 C.3     1  UNL1        0.0254
     22 C         136.9530  140.8918  155.0909 C.3     1  UNL1        0.0807
     23 N         136.2987  139.7343  155.7852 N.3     1  UNL1       -0.3202
     24 H         136.5204  139.7653  156.7803 H       1  UNL1        0.1189
     25 H         136.6429  138.8605  155.3872 H       1  UNL1        0.1189
     26 S         139.8844  142.4069  164.4842 S.3     1  UNL1       -0.0785
     27 C         139.4562  141.3123  165.4161 C.ar    1  UNL1        0.0429
     28 C         138.4318  140.3094  164.9746 C.ar    1  UNL1        0.0280
     29 C         138.0035  139.2149  165.9067 C.ar    1  UNL1        0.0990
     30 N         138.5997  139.1232  167.2800 N.ar    1  UNL1       -0.2473
     31 C         139.6241  140.1261  167.7215 C.ar    1  UNL1        0.0696
     32 C         140.0523  141.2206  166.7895 C.ar    1  UNL1        0.0771
     33 CL        141.0767  142.2235  167.2310 Cl      1  UNL1       -0.0805
     34 C         140.2202  140.0344  169.0948 C.3     1  UNL1        0.0412
     35 C         141.3873  139.7308  169.9867 C.3     1  UNL1        0.0063
     36 C         140.0855  140.1793  170.5817 C.3     1  UNL1        0.0063
@<TRIPOS>BOND
     1    13    12    1
     2    13    14    1
     3    14    15    1
     4    15    16    1
     5    16    17    1
     6    17    18    1
     7    18    19    1
     8    19     1    1
     9     1     2   ar
    10     2     3   ar
    11     3     4    1
    12     3     5   ar
    13     5    26    1
    14    26    27    1
    15    27    28   ar
    16    28    29   ar
    17    29    30   ar
    18    30    31   ar
    19    31    34    1
    20    34    35    1
    21    35    36    1
    22    31    32   ar
    23    32    33    1
    24     5     6   ar
    25     6     7    2
    26     6     8   ar
    27     8     9    1
    28    19    20    1
    29    20    21    1
    30    16    22    1
    31    22    23    1
    32    22    13    1
    33    21    16    1
    34     8     1   ar
    35    32    27   ar
    36    36    34    1
    37     4    10    1
    38     4    11    1
    39    23    24    1
    40    23    25    1
@<TRIPOS>MOLECULE
*****
 36 40 0 0 0
SMALL
GASTEIGER

@<TRIPOS>ATOM
      1 C         142.9918  142.6724  158.6946 C.ar    1  UNL1        0.2046
      2 N         142.7008  143.9592  159.4084 N.ar    1  UNL1       -0.1998
      3 C         141.6750  143.9948  160.5023 C.ar    1  UNL1        0.1389
      4 N         141.3841  145.2815  161.2161 N.pl3   1  UNL1       -0.3420
      5 C         140.9403  142.7435  160.8824 C.ar    1  UNL1        0.1169
      6 C         141.2313  141.4567  160.1686 C.ar    1  UNL1        0.2716
      7 O         140.4966  140.2054  160.5487 O.2     1  UNL1       -0.2663
      8 N         142.2571  141.4212  159.0747 N.ar    1  UNL1       -0.2662
      9 C         142.5481  140.1343  158.3609 C.3     1  UNL1        0.1363
     10 H         141.8663  146.1028  160.9666 H       1  UNL1        0.1437
     11 H         140.7108  145.3049  161.9340 H       1  UNL1        0.1437
     12 C         149.6545  142.2756  153.9553 C.3     1  UNL1        0.0335
     13 C         148.1886  142.4161  154.2401 C.3     1  UNL1        0.1294
     14 O         147.1063  142.6061  153.2190 O.3     1  UNL1       -0.3548
     15 C         145.7963  142.6986  153.9439 C.3     1  UNL1        0.1434
     16 C         146.0690  142.5658  155.4129 C.3     1  UNL1        0.0460
     17 C         144.6188  142.7481  155.0756 C.3     1  UNL1        0.0254
     18 C         143.5931  142.7837  156.1695 C.3     1  UNL1        0.0937
     19 N         144.0176  142.6369  157.6007 N.pl3   1  UNL1       -0.2794
     20 C         145.4677  142.4545  157.9380 C.3     1  UNL1        0.0937
     21 C         146.4934  142.4190  156.8441 C.3     1  UNL1        0.0254
     22 C         147.5476  142.3911  155.5959 C.3     1  UNL1        0.0807
     23 N         148.2599  142.2214  156.9050 N.3     1  UNL1       -0.3202
     24 H         147.5815  142.2423  157.6664 H       1  UNL1        0.1189
     25 H         148.9316  142.9791  157.0273 H       1  UNL1        0.1189
     26 S         139.9146  142.7790  161.9763 S.3     1  UNL1       -0.0785
     27 C         140.2333  142.1991  163.3224 C.ar    1  UNL1        0.0429
     28 C         141.3698  142.7548  164.1284 C.ar    1  UNL1        0.0280
     29 C         141.6885  142.1748  165.4746 C.ar    1  UNL1        0.0990
     30 N         140.8708  141.0392  166.0147 N.ar    1  UNL1       -0.2473
     31 C         139.7344  140.4835  165.2086 C.ar    1  UNL1        0.0696
     32 C         139.4156  141.0634  163.8625 C.ar    1  UNL1        0.0771
     33 CL        138.2792  140.5077  163.0565 Cl      1  UNL1       -0.0805
     34 C         138.9167  139.3479  165.7487 C.3     1  UNL1        0.0412
     35 C         137.9078  138.8239  166.7272 C.3     1  UNL1        0.0063
     36 C         138.5092  137.9050  165.7056 C.3     1  UNL1        0.0063
@<TRIPOS>BOND
     1    13    12    1
     2    13    14    1
     3    14    15    1
     4    15    16    1
     5    16    17    1
     6    17    18    1
     7    18    19    1
     8    19     1    1
     9     1     2   ar
    10     2     3   ar
    11     3     4    1
    12     3     5   ar
    13     5    26    1
    14    26    27    1
    15    27    28   ar
    16    28    29   ar
    17    29    30   ar
    18    30    31   ar
    19    31    34    1
    20    34    35    1
    21    35    36    1
    22    31    32   ar
    23    32    33    1
    24     5     6   ar
    25     6     7    2
    26     6     8   ar
    27     8     9    1
    28    19    20    1
    29    20    21    1
    30    16    22    1
    31    22    23    1
    32    22    13    1
    33    21    16    1
    34     8     1   ar
    35    32    27   ar
    36    36    34    1
    37     4    10    1
    38     4    11    1
    39    23    24    1
    40    23    25    1
