@<TRIPOS>MOLECULE
*****
 36 41 0 0 0
SMALL
GASTEIGER

@<TRIPOS>ATOM
      1 N         141.5367  136.6465  156.6649 N.ar    1  UNL1       -0.2166
      2 N         142.4805  137.3611  157.5861 N.ar    1  UNL1       -0.1622
      3 C         141.7116  138.4373  158.2936 C.ar    1  UNL1        0.1265
      4 C         140.2926  138.3879  157.8097 C.ar    1  UNL1        0.0924
      5 C         140.1846  137.2811  156.8030 C.ar    1  UNL1        0.1315
      6 N         138.9425  136.8794  156.0643 N.pl3   1  UNL1       -0.3425
      7 H         138.0978  137.3593  156.2240 H       1  UNL1        0.1437
      8 H         138.9719  136.1359  155.4197 H       1  UNL1        0.1437
      9 C         144.4319  129.7981  154.1469 C.3     1  UNL1        0.1367
     10 C         143.7856  131.1353  154.3570 C.2     1  UNL1        0.3518
     11 N         143.7493  131.9045  155.6443 N.2     1  UNL1       -0.0350
     12 C         143.0034  133.1827  155.3997 C.2     1  UNL1        0.2332
     13 C         142.6561  134.3304  156.3009 C.2     1  UNL1        0.0690
     14 C         141.8841  135.4988  155.7636 C.2     1  UNL1        0.0842
     15 C         141.4595  135.5196  154.3251 C.2     1  UNL1        0.0020
     16 C         141.8068  134.3720  153.4239 C.3     1  UNL1        0.1053
     17 C         142.5788  133.2036  153.9612 C.2     1  UNL1        0.2175
     18 N         143.0622  131.9382  153.3168 N.2     1  UNL1       -0.0389
     19 C         139.1776  139.2873  158.2543 C.2     1  UNL1        0.2173
     20 O         138.2756  139.9224  157.2378 O.2     1  UNL1       -0.2848
     21 C         138.9645  139.5516  159.7153 C.2     1  UNL1        0.1199
     22 C         138.5276  140.8522  160.3215 C.2     1  UNL1        0.0235
     23 C         138.4440  140.6661  161.8076 C.2     1  UNL1        0.0155
     24 C         138.0668  141.6028  162.9168 C.2     1  UNL1        0.0006
     25 C         138.0749  141.1238  164.3383 C.2     1  UNL1       -0.0067
     26 C         138.4601  139.7082  164.6504 C.2     1  UNL1       -0.0223
     27 C         138.8373  138.7715  163.5413 C.3     1  UNL1        0.0691
     28 C         138.8292  139.2505  162.1199 C.2     1  UNL1        0.0632
     29 N         139.1509  138.5617  160.8268 N.2     1  UNL1       -0.2461
     30 C         138.4682  139.2293  166.0719 C.3     1  UNL1        0.0954
     31 N         139.6015  139.6002  166.9819 N.3     1  UNL1       -0.2649
     32 C         139.3257  139.9833  168.4056 C.3     1  UNL1        0.1049
     33 C         140.4589  140.3542  169.3155 C.3     1  UNL1        0.1595
     34 O         141.8681  140.3419  168.8018 O.3     1  UNL1       -0.3508
     35 C         142.1440  139.9588  167.3781 C.3     1  UNL1        0.1595
     36 C         141.0107  139.5879  166.4681 C.3     1  UNL1        0.1049
@<TRIPOS>BOND
     1     9    10    1
     2    10    11    2
     3    11    12    1
     4    12    13    2
     5    13    14    1
     6    14     1    1
     7     1     2   ar
     8     2     3   ar
     9     3     4   ar
    10     4    19    1
    11    19    20    2
    12    19    21    1
    13    21    22    2
    14    22    23    1
    15    23    24    2
    16    24    25    1
    17    25    26    2
    18    26    30    1
    19    30    31    1
    20    31    32    1
    21    32    33    1
    22    33    34    1
    23    34    35    1
    24    35    36    1
    25    26    27    1
    26    27    28    1
    27    28    29    2
    28     4     5   ar
    29     5     6    1
    30    14    15    2
    31    15    16    1
    32    16    17    1
    33    17    18    2
    34    18    10    1
    35    17    12    1
    36     5     1   ar
    37    29    21    1
    38    28    23    1
    39    36    31    1
    40     6     7    1
    41     6     8    1
@<TRIPOS>MOLECULE
*****
 36 41 0 0 0
SMALL
GASTEIGER

@<TRIPOS>ATOM
      1 N         140.0838  138.7935  159.5688 N.ar    1  UNL1       -0.2166
      2 N         139.2781  138.8621  158.3055 N.ar    1  UNL1       -0.1622
      3 C         140.1132  138.3030  157.1921 C.ar    1  UNL1        0.1265
      4 C         141.4353  137.8888  157.7672 C.ar    1  UNL1        0.0924
      5 C         141.4171  138.1919  159.2361 C.ar    1  UNL1        0.1315
      6 N         142.5357  137.9381  160.2027 N.pl3   1  UNL1       -0.3425
      7 H         143.3775  137.5370  159.8870 H       1  UNL1        0.1437
      8 H         142.4281  138.1726  161.1528 H       1  UNL1        0.1437
      9 C         137.8085  138.6101  167.0797 C.3     1  UNL1        0.1367
     10 C         138.2133  138.9302  165.6712 C.2     1  UNL1        0.3518
     11 N         138.6099  137.9362  164.6202 N.2     1  UNL1       -0.0350
     12 C         138.9342  138.6923  163.3659 C.2     1  UNL1        0.2332
     13 C         139.3828  138.2389  162.0083 C.2     1  UNL1        0.0690
     14 C         139.6352  139.2469  160.9265 C.2     1  UNL1        0.0842
     15 C         139.4390  140.7082  161.2024 C.2     1  UNL1        0.0020
     16 C         138.9904  141.1615  162.5600 C.3     1  UNL1        0.1053
     17 C         138.7380  140.1536  163.6418 C.2     1  UNL1        0.2175
     18 N         138.2924  140.3006  165.0665 N.2     1  UNL1       -0.0389
     19 C         142.5753  137.2785  157.0070 C.2     1  UNL1        0.2173
     20 O         143.7173  138.1373  156.5504 O.2     1  UNL1       -0.2848
     21 C         142.5732  135.8096  156.7033 C.2     1  UNL1        0.1199
     22 C         141.6439  135.1057  155.7595 C.2     1  UNL1        0.0235
     23 C         141.9965  133.6477  155.7630 C.2     1  UNL1        0.0155
     24 C         141.4212  132.4741  155.0270 C.2     1  UNL1        0.0006
     25 C         141.9931  131.1034  155.2370 C.2     1  UNL1       -0.0067
     26 C         143.1403  130.9064  156.1830 C.2     1  UNL1       -0.0223
     27 C         143.7157  132.0799  156.9189 C.3     1  UNL1        0.0691
     28 C         143.1438  133.4506  156.7090 C.2     1  UNL1        0.0632
     29 N         143.5002  134.7867  157.2901 N.2     1  UNL1       -0.2461
     30 C         143.7122  129.5356  156.3930 C.3     1  UNL1        0.0954
     31 N         143.3368  128.7448  157.6110 N.3     1  UNL1       -0.2649
     32 C         144.0361  128.9968  158.9138 C.3     1  UNL1        0.1049
     33 C         143.6606  128.2060  160.1318 C.3     1  UNL1        0.1595
     34 O         142.5858  127.1632  160.0471 O.3     1  UNL1       -0.3508
     35 C         141.8864  126.9112  158.7443 C.3     1  UNL1        0.1595
     36 C         142.2619  127.7020  157.5262 C.3     1  UNL1        0.1049
@<TRIPOS>BOND
     1     9    10    1
     2    10    11    2
     3    11    12    1
     4    12    13    2
     5    13    14    1
     6    14     1    1
     7     1     2   ar
     8     2     3   ar
     9     3     4   ar
    10     4    19    1
    11    19    20    2
    12    19    21    1
    13    21    22    2
    14    22    23    1
    15    23    24    2
    16    24    25    1
    17    25    26    2
    18    26    30    1
    19    30    31    1
    20    31    32    1
    21    32    33    1
    22    33    34    1
    23    34    35    1
    24    35    36    1
    25    26    27    1
    26    27    28    1
    27    28    29    2
    28     4     5   ar
    29     5     6    1
    30    14    15    2
    31    15    16    1
    32    16    17    1
    33    17    18    2
    34    18    10    1
    35    17    12    1
    36     5     1   ar
    37    29    21    1
    38    28    23    1
    39    36    31    1
    40     6     7    1
    41     6     8    1
@<TRIPOS>MOLECULE
*****
 36 41 0 0 0
SMALL
GASTEIGER

@<TRIPOS>ATOM
      1 N         140.0108  143.6541  159.5049 N.ar    1  UNL1       -0.2166
      2 N         139.6102  144.7413  160.4575 N.ar    1  UNL1       -0.1622
      3 C         140.6701  144.8459  161.5137 C.ar    1  UNL1        0.1265
      4 C         141.7258  143.8232  161.2139 C.ar    1  UNL1        0.0924
      5 C         141.3182  143.0866  159.9724 C.ar    1  UNL1        0.1315
      6 N         142.0838  141.9774  159.3140 N.pl3   1  UNL1       -0.3425
      7 H         142.9375  141.6728  159.6984 H       1  UNL1        0.1437
      8 H         141.7325  141.5539  158.4976 H       1  UNL1        0.1437
      9 C         134.9989  139.7017  154.9350 C.3     1  UNL1        0.1367
     10 C         136.0177  140.6028  155.5676 C.2     1  UNL1        0.3518
     11 N         136.4372  140.5853  157.0076 N.2     1  UNL1       -0.0350
     12 C         137.4747  141.6512  157.2012 C.2     1  UNL1        0.2332
     13 C         138.2461  142.0934  158.4093 C.2     1  UNL1        0.0690
     14 C         139.2393  143.2118  158.2968 C.2     1  UNL1        0.0842
     15 C         139.4611  143.8880  156.9764 C.2     1  UNL1        0.0020
     16 C         138.6896  143.4459  155.7684 C.3     1  UNL1        0.1053
     17 C         137.6965  142.3275  155.8808 C.2     1  UNL1        0.2175
     18 N         136.7960  141.6795  154.8712 N.2     1  UNL1       -0.0389
     19 C         142.9704  143.5798  162.0150 C.2     1  UNL1        0.2173
     20 O         144.2070  144.3839  161.7424 O.2     1  UNL1       -0.2848
     21 C         142.9783  142.5324  163.0887 C.2     1  UNL1        0.1199
     22 C         143.3508  141.0903  162.9109 C.2     1  UNL1        0.0235
     23 C         143.2179  140.4098  164.2411 C.2     1  UNL1        0.0155
     24 C         143.4521  138.9920  164.6710 C.2     1  UNL1        0.0006
     25 C         143.2317  138.5957  166.1008 C.2     1  UNL1       -0.0067
     26 C         142.7771  139.6172  167.1006 C.2     1  UNL1       -0.0223
     27 C         142.5429  141.0351  166.6707 C.3     1  UNL1        0.0691
     28 C         142.7633  141.4314  165.2410 C.2     1  UNL1        0.0632
     29 N         142.6152  142.7432  164.5288 N.2     1  UNL1       -0.2461
     30 C         142.5567  139.2209  168.5304 C.3     1  UNL1        0.0954
     31 N         141.6792  140.0573  169.4138 N.3     1  UNL1       -0.2649
     32 C         140.1880  139.9964  169.2637 C.3     1  UNL1        0.1049
     33 C         139.3105  140.8328  170.1471 C.3     1  UNL1        0.1595
     34 O         139.9241  141.7301  171.1806 O.3     1  UNL1       -0.3508
     35 C         141.4153  141.7910  171.3308 C.3     1  UNL1        0.1595
     36 C         142.2929  140.9546  170.4474 C.3     1  UNL1        0.1049
@<TRIPOS>BOND
     1     9    10    1
     2    10    11    2
     3    11    12    1
     4    12    13    2
     5    13    14    1
     6    14     1    1
     7     1     2   ar
     8     2     3   ar
     9     3     4   ar
    10     4    19    1
    11    19    20    2
    12    19    21    1
    13    21    22    2
    14    22    23    1
    15    23    24    2
    16    24    25    1
    17    25    26    2
    18    26    30    1
    19    30    31    1
    20    31    32    1
    21    32    33    1
    22    33    34    1
    23    34    35    1
    24    35    36    1
    25    26    27    1
    26    27    28    1
    27    28    29    2
    28     4     5   ar
    29     5     6    1
    30    14    15    2
    31    15    16    1
    32    16    17    1
    33    17    18    2
    34    18    10    1
    35    17    12    1
    36     5     1   ar
    37    29    21    1
    38    28    23    1
    39    36    31    1
    40     6     7    1
    41     6     8    1
@<TRIPOS>MOLECULE
*****
 36 41 0 0 0
SMALL
GASTEIGER

@<TRIPOS>ATOM
      1 N         139.5975  143.4544  158.2718 N.ar    1  UNL1       -0.2166
      2 N         140.6085  144.4498  157.7850 N.ar    1  UNL1       -0.1622
      3 C         141.0171  145.3027  158.9493 C.ar    1  UNL1        0.1265
      4 C         140.2586  144.8344  160.1557 C.ar    1  UNL1        0.0924
      5 C         139.3813  143.6921  159.7370 C.ar    1  UNL1        0.1315
      6 N         138.4510  142.9226  160.6272 N.pl3   1  UNL1       -0.3425
      7 H         138.3780  143.1548  161.5811 H       1  UNL1        0.1437
      8 H         137.9135  142.1852  160.2576 H       1  UNL1        0.1437
      9 C         138.5026  137.1224  153.7629 C.3     1  UNL1        0.1367
     10 C         138.4270  138.3659  154.5983 C.2     1  UNL1        0.3518
     11 N         139.5824  139.0516  155.2653 N.2     1  UNL1       -0.0350
     12 C         139.0523  140.2516  155.9926 C.2     1  UNL1        0.2332
     13 C         139.7284  141.3005  156.8248 C.2     1  UNL1        0.0690
     14 C         138.9214  142.4054  157.4396 C.2     1  UNL1        0.0842
     15 C         137.4383  142.4613  157.2222 C.2     1  UNL1        0.0020
     16 C         136.7622  141.4124  156.3900 C.3     1  UNL1        0.1053
     17 C         137.5692  140.3075  155.7752 C.2     1  UNL1        0.2175
     18 N         137.1828  139.1421  154.9135 N.2     1  UNL1       -0.0389
     19 C         140.3598  145.4077  161.5381 C.2     1  UNL1        0.2173
     20 O         139.8493  146.7907  161.8157 O.2     1  UNL1       -0.2848
     21 C         140.9713  144.5982  162.6429 C.2     1  UNL1        0.1199
     22 C         142.3222  144.8212  163.2557 C.2     1  UNL1        0.0235
     23 C         142.5251  143.7843  164.3204 C.2     1  UNL1        0.0155
     24 C         143.6674  143.5151  165.2545 C.2     1  UNL1        0.0006
     25 C         143.5843  142.3820  166.2340 C.2     1  UNL1       -0.0067
     26 C         142.3589  141.5182  166.2792 C.2     1  UNL1       -0.0223
     27 C         141.2166  141.7874  165.3451 C.3     1  UNL1        0.0691
     28 C         141.2997  142.9204  164.3657 C.2     1  UNL1        0.0632
     29 N         140.3394  143.4234  163.3289 N.2     1  UNL1       -0.2461
     30 C         142.2758  140.3851  167.2586 C.3     1  UNL1        0.0954
     31 N         141.5466  140.5677  168.5566 N.3     1  UNL1       -0.2649
     32 C         140.0639  140.3505  168.6209 C.3     1  UNL1        0.1049
     33 C         139.3346  140.5331  169.9189 C.3     1  UNL1        0.1595
     34 O         140.0881  140.9329  171.1526 O.3     1  UNL1       -0.3508
     35 C         141.5709  141.1502  171.0885 C.3     1  UNL1        0.1595
     36 C         142.3001  140.9676  169.7905 C.3     1  UNL1        0.1049
@<TRIPOS>BOND
     1     9    10    1
     2    10    11    2
     3    11    12    1
     4    12    13    2
     5    13    14    1
     6    14     1    1
     7     1     2   ar
     8     2     3   ar
     9     3     4   ar
    10     4    19    1
    11    19    20    2
    12    19    21    1
    13    21    22    2
    14    22    23    1
    15    23    24    2
    16    24    25    1
    17    25    26    2
    18    26    30    1
    19    30    31    1
    20    31    32    1
    21    32    33    1
    22    33    34    1
    23    34    35    1
    24    35    36    1
    25    26    27    1
    26    27    28    1
    27    28    29    2
    28     4     5   ar
    29     5     6    1
    30    14    15    2
    31    15    16    1
    32    16    17    1
    33    17    18    2
    34    18    10    1
    35    17    12    1
    36     5     1   ar
    37    29    21    1
    38    28    23    1
    39    36    31    1
    40     6     7    1
    41     6     8    1
@<TRIPOS>MOLECULE
*****
 36 41 0 0 0
SMALL
GASTEIGER

@<TRIPOS>ATOM
      1 N         142.3930  138.5828  158.3261 N.ar    1  UNL1       -0.2166
      2 N         142.3149  140.0519  158.0336 N.ar    1  UNL1       -0.1622
      3 C         142.6982  140.7936  159.2797 C.ar    1  UNL1        0.1265
      4 C         143.0131  139.7829  160.3425 C.ar    1  UNL1        0.0924
      5 C         142.8244  138.4165  159.7531 C.ar    1  UNL1        0.1315
      6 N         143.0310  137.1128  160.4655 N.pl3   1  UNL1       -0.3425
      7 H         143.3166  137.1066  161.4077 H       1  UNL1        0.1437
      8 H         142.8810  136.2634  159.9910 H       1  UNL1        0.1437
      9 C         143.1285  131.9861  154.1349 C.3     1  UNL1        0.1367
     10 C         142.7358  133.2725  154.7990 C.2     1  UNL1        0.3518
     11 N         143.5417  134.0194  155.8202 N.2     1  UNL1       -0.0350
     12 C         142.7723  135.2464  156.2108 C.2     1  UNL1        0.2332
     13 C         143.0730  136.3546  157.1758 C.2     1  UNL1        0.0690
     14 C         142.0923  137.4744  157.3611 C.2     1  UNL1        0.0842
     15 C         140.8110  137.4858  156.5813 C.2     1  UNL1        0.0020
     16 C         140.5103  136.3776  155.6163 C.3     1  UNL1        0.1053
     17 C         141.4910  135.2578  155.4311 C.2     1  UNL1        0.2175
     18 N         141.4684  134.0379  154.5586 N.2     1  UNL1       -0.0389
     19 C         143.4414  140.0855  161.7478 C.2     1  UNL1        0.2173
     20 O         144.8598  140.4834  162.0304 O.2     1  UNL1       -0.2848
     21 C         142.4513  139.9901  162.8706 C.2     1  UNL1        0.1199
     22 C         141.0299  139.5248  162.7556 C.2     1  UNL1        0.0235
     23 C         140.4090  139.5904  164.1194 C.2     1  UNL1        0.0155
     24 C         139.0328  139.2549  164.6129 C.2     1  UNL1        0.0006
     25 C         138.6941  139.4252  166.0642 C.2     1  UNL1       -0.0067
     26 C         139.7316  139.9311  167.0220 C.2     1  UNL1       -0.0223
     27 C         141.1078  140.2667  166.5286 C.3     1  UNL1        0.0691
     28 C         141.4465  140.0963  165.0773 C.2     1  UNL1        0.0632
     29 N         142.7087  140.3433  164.3055 N.2     1  UNL1       -0.2461
     30 C         139.3930  140.1015  168.4733 C.3     1  UNL1        0.0954
     31 N         140.2281  140.9986  169.3380 N.3     1  UNL1       -0.2649
     32 C         140.2592  142.4753  169.0770 C.3     1  UNL1        0.1049
     33 C         141.0943  143.3724  169.9417 C.3     1  UNL1        0.1595
     34 O         141.8983  142.7928  171.0675 O.3     1  UNL1       -0.3508
     35 C         141.8673  141.3160  171.3286 C.3     1  UNL1        0.1595
     36 C         141.0321  140.4189  170.4639 C.3     1  UNL1        0.1049
@<TRIPOS>BOND
     1     9    10    1
     2    10    11    2
     3    11    12    1
     4    12    13    2
     5    13    14    1
     6    14     1    1
     7     1     2   ar
     8     2     3   ar
     9     3     4   ar
    10     4    19    1
    11    19    20    2
    12    19    21    1
    13    21    22    2
    14    22    23    1
    15    23    24    2
    16    24    25    1
    17    25    26    2
    18    26    30    1
    19    30    31    1
    20    31    32    1
    21    32    33    1
    22    33    34    1
    23    34    35    1
    24    35    36    1
    25    26    27    1
    26    27    28    1
    27    28    29    2
    28     4     5   ar
    29     5     6    1
    30    14    15    2
    31    15    16    1
    32    16    17    1
    33    17    18    2
    34    18    10    1
    35    17    12    1
    36     5     1   ar
    37    29    21    1
    38    28    23    1
    39    36    31    1
    40     6     7    1
    41     6     8    1
@<TRIPOS>MOLECULE
*****
 36 41 0 0 0
SMALL
GASTEIGER

@<TRIPOS>ATOM
      1 N         141.6108  136.8495  156.6655 N.ar    1  UNL1       -0.2166
      2 N         142.5181  137.7779  157.4172 N.ar    1  UNL1       -0.1622
      3 C         141.6860  138.9036  157.9561 C.ar    1  UNL1        0.1265
      4 C         140.2645  138.6709  157.5375 C.ar    1  UNL1        0.0924
      5 C         140.2180  137.4015  156.7399 C.ar    1  UNL1        0.1315
      6 N         138.9937  136.7911  156.1247 N.pl3   1  UNL1       -0.3425
      7 H         138.1190  137.2307  156.2291 H       1  UNL1        0.1437
      8 H         139.0649  135.9510  155.6164 H       1  UNL1        0.1437
      9 C         144.8531  129.8317  155.3012 C.3     1  UNL1        0.1367
     10 C         144.1434  131.1531  155.2891 C.2     1  UNL1        0.3518
     11 N         144.0525  132.1157  156.4360 N.2     1  UNL1       -0.0350
     12 C         143.2529  133.3015  155.9837 C.2     1  UNL1        0.2332
     13 C         142.8400  134.5607  156.6864 C.2     1  UNL1        0.0690
     14 C         142.0238  135.5902  155.9628 C.2     1  UNL1        0.0842
     15 C         141.6205  135.3606  154.5364 C.2     1  UNL1        0.0020
     16 C         142.0334  134.1014  153.8336 C.3     1  UNL1        0.1053
     17 C         142.8497  133.0719  154.5573 C.2     1  UNL1        0.2175
     18 N         143.4000  131.7441  154.1281 N.2     1  UNL1       -0.0389
     19 C         139.0948  139.5529  157.8600 C.2     1  UNL1        0.2173
     20 O         138.0156  139.7698  156.8410 O.2     1  UNL1       -0.2848
     21 C         139.0044  140.2181  159.2014 C.2     1  UNL1        0.1199
     22 C         137.8792  140.0743  160.1828 C.2     1  UNL1        0.0235
     23 C         138.2028  140.9112  161.3848 C.2     1  UNL1        0.0155
     24 C         137.4619  141.1567  162.6658 C.2     1  UNL1        0.0006
     25 C         138.0462  142.0633  163.7082 C.2     1  UNL1       -0.0067
     26 C         139.3714  142.7243  163.4697 C.2     1  UNL1       -0.0223
     27 C         140.1123  142.4787  162.1888 C.3     1  UNL1        0.0691
     28 C         139.5280  141.5722  161.1464 C.2     1  UNL1        0.0632
     29 N         140.0234  141.1438  159.7969 N.2     1  UNL1       -0.2461
     30 C         139.9557  143.6309  164.5122 C.3     1  UNL1        0.0954
     31 N         141.4440  143.7721  164.6342 N.3     1  UNL1       -0.2649
     32 C         142.1474  144.9106  163.9567 C.3     1  UNL1        0.1049
     33 C         143.6357  145.0519  164.0788 C.3     1  UNL1        0.1595
     34 O         144.4207  144.0547  164.8783 O.3     1  UNL1       -0.3508
     35 C         143.7174  142.9162  165.5558 C.3     1  UNL1        0.1595
     36 C         142.2290  142.7749  165.4338 C.3     1  UNL1        0.1049
@<TRIPOS>BOND
     1     9    10    1
     2    10    11    2
     3    11    12    1
     4    12    13    2
     5    13    14    1
     6    14     1    1
     7     1     2   ar
     8     2     3   ar
     9     3     4   ar
    10     4    19    1
    11    19    20    2
    12    19    21    1
    13    21    22    2
    14    22    23    1
    15    23    24    2
    16    24    25    1
    17    25    26    2
    18    26    30    1
    19    30    31    1
    20    31    32    1
    21    32    33    1
    22    33    34    1
    23    34    35    1
    24    35    36    1
    25    26    27    1
    26    27    28    1
    27    28    29    2
    28     4     5   ar
    29     5     6    1
    30    14    15    2
    31    15    16    1
    32    16    17    1
    33    17    18    2
    34    18    10    1
    35    17    12    1
    36     5     1   ar
    37    29    21    1
    38    28    23    1
    39    36    31    1
    40     6     7    1
    41     6     8    1
@<TRIPOS>MOLECULE
*****
 36 41 0 0 0
SMALL
GASTEIGER

@<TRIPOS>ATOM
      1 N         140.1791  138.6803  159.6134 N.ar    1  UNL1       -0.2166
      2 N         139.3235  138.6459  158.3819 N.ar    1  UNL1       -0.1622
      3 C         140.1378  138.0578  157.2680 C.ar    1  UNL1        0.1265
      4 C         141.4969  137.7287  157.8110 C.ar    1  UNL1        0.0924
      5 C         141.5223  138.1134  159.2606 C.ar    1  UNL1        0.1315
      6 N         142.6866  137.9585  160.1936 N.pl3   1  UNL1       -0.3425
      7 H         143.5316  137.5734  159.8666 H       1  UNL1        0.1437
      8 H         142.6058  138.2419  161.1329 H       1  UNL1        0.1437
      9 C         137.9126  138.8113  167.1280 C.3     1  UNL1        0.1367
     10 C         138.3347  139.0732  165.7127 C.2     1  UNL1        0.3518
     11 N         138.6624  138.0325  164.6833 N.2     1  UNL1       -0.0350
     12 C         139.0334  138.7380  163.4126 C.2     1  UNL1        0.2332
     13 C         139.4481  138.2265  162.0649 C.2     1  UNL1        0.0690
     14 C         139.7644  139.1918  160.9612 C.2     1  UNL1        0.0842
     15 C         139.6659  140.6685  161.2052 C.2     1  UNL1        0.0020
     16 C         139.2512  141.1800  162.5529 C.3     1  UNL1        0.1053
     17 C         138.9350  140.2148  163.6566 C.2     1  UNL1        0.2175
     18 N         138.5031  140.4219  165.0781 N.2     1  UNL1       -0.0389
     19 C         142.6312  137.1215  157.0399 C.2     1  UNL1        0.2173
     20 O         143.7271  137.9950  156.5052 O.2     1  UNL1       -0.2848
     21 C         142.6695  135.6407  156.8035 C.2     1  UNL1        0.1199
     22 C         143.5823  134.6628  157.4821 C.2     1  UNL1        0.0235
     23 C         143.2787  133.2956  156.9449 C.2     1  UNL1        0.0155
     24 C         143.8621  131.9468  157.2455 C.2     1  UNL1        0.0006
     25 C         143.3451  130.7309  156.5354 C.2     1  UNL1       -0.0067
     26 C         142.2447  130.8638  155.5248 C.2     1  UNL1       -0.0223
     27 C         141.6613  132.2126  155.2243 C.3     1  UNL1        0.0691
     28 C         142.1783  133.4285  155.9343 C.2     1  UNL1        0.0632
     29 N         141.8018  134.8778  155.8469 N.2     1  UNL1       -0.2461
     30 C         141.7277  129.6479  154.8147 C.3     1  UNL1        0.0954
     31 N         141.0433  128.5611  155.5896 N.3     1  UNL1       -0.2649
     32 C         141.8401  127.6709  156.4966 C.3     1  UNL1        0.1049
     33 C         141.1558  126.5841  157.2715 C.3     1  UNL1        0.1595
     34 O         139.6747  126.3875  157.1395 O.3     1  UNL1       -0.3508
     35 C         138.8778  127.2777  156.2325 C.3     1  UNL1        0.1595
     36 C         139.5621  128.3645  155.4576 C.3     1  UNL1        0.1049
@<TRIPOS>BOND
     1     9    10    1
     2    10    11    2
     3    11    12    1
     4    12    13    2
     5    13    14    1
     6    14     1    1
     7     1     2   ar
     8     2     3   ar
     9     3     4   ar
    10     4    19    1
    11    19    20    2
    12    19    21    1
    13    21    22    2
    14    22    23    1
    15    23    24    2
    16    24    25    1
    17    25    26    2
    18    26    30    1
    19    30    31    1
    20    31    32    1
    21    32    33    1
    22    33    34    1
    23    34    35    1
    24    35    36    1
    25    26    27    1
    26    27    28    1
    27    28    29    2
    28     4     5   ar
    29     5     6    1
    30    14    15    2
    31    15    16    1
    32    16    17    1
    33    17    18    2
    34    18    10    1
    35    17    12    1
    36     5     1   ar
    37    29    21    1
    38    28    23    1
    39    36    31    1
    40     6     7    1
    41     6     8    1
@<TRIPOS>MOLECULE
*****
 36 41 0 0 0
SMALL
GASTEIGER

@<TRIPOS>ATOM
      1 N         140.8423  144.5276  158.7861 N.ar    1  UNL1       -0.2166
      2 N         141.8358  144.8047  159.8751 N.ar    1  UNL1       -0.1622
      3 C         141.3777  144.0919  161.1129 C.ar    1  UNL1        0.1265
      4 C         140.1010  143.3741  160.7887 C.ar    1  UNL1        0.0924
      5 C         139.7702  143.6435  159.3507 C.ar    1  UNL1        0.1315
      6 N         138.5766  143.1205  158.6078 N.pl3   1  UNL1       -0.3425
      7 H         137.9246  142.5436  159.0675 H       1  UNL1        0.1437
      8 H         138.4453  143.3540  157.6604 H       1  UNL1        0.1437
      9 C         139.8872  149.1731  152.5306 C.3     1  UNL1        0.1367
     10 C         140.2070  148.1120  153.5415 C.2     1  UNL1        0.3518
     11 N         139.8387  148.1397  154.9953 N.2     1  UNL1       -0.0350
     12 C         140.3553  146.8818  155.6284 C.2     1  UNL1        0.2332
     13 C         140.2884  146.3655  157.0351 C.2     1  UNL1        0.0690
     14 C         140.9091  145.0440  157.3793 C.2     1  UNL1        0.0842
     15 C         141.5967  144.2389  156.3167 C.2     1  UNL1        0.0020
     16 C         141.6635  144.7552  154.9100 C.3     1  UNL1        0.1053
     17 C         141.0428  146.0766  154.5659 C.2     1  UNL1        0.2175
     18 N         140.9512  146.8370  153.2761 N.2     1  UNL1       -0.0389
     19 C         139.2966  142.5345  161.7363 C.2     1  UNL1        0.2173
     20 O         137.8005  142.5084  161.6303 O.2     1  UNL1       -0.2848
     21 C         139.9881  141.7210  162.7898 C.2     1  UNL1        0.1199
     22 C         140.5530  140.3431  162.6104 C.2     1  UNL1        0.0235
     23 C         141.1502  139.9132  163.9175 C.2     1  UNL1        0.0155
     24 C         141.8471  138.6526  164.3362 C.2     1  UNL1        0.0006
     25 C         142.3481  138.5042  165.7423 C.2     1  UNL1       -0.0067
     26 C         142.1522  139.6163  166.7295 C.2     1  UNL1       -0.0223
     27 C         141.4554  140.8769  166.3107 C.3     1  UNL1        0.0691
     28 C         140.9544  141.0253  164.9048 C.2     1  UNL1        0.0632
     29 N         140.2362  142.1426  164.2078 N.2     1  UNL1       -0.2461
     30 C         142.6532  139.4679  168.1356 C.3     1  UNL1        0.0954
     31 N         142.3188  140.5069  169.1645 N.3     1  UNL1       -0.2649
     32 C         143.2126  141.6976  169.3460 C.3     1  UNL1        0.1049
     33 C         142.8782  142.7366  170.3750 C.3     1  UNL1        0.1595
     34 O         141.6499  142.5848  171.2224 O.3     1  UNL1       -0.3508
     35 C         140.7560  141.3940  171.0409 C.3     1  UNL1        0.1595
     36 C         141.0905  140.3550  170.0120 C.3     1  UNL1        0.1049
@<TRIPOS>BOND
     1     9    10    1
     2    10    11    2
     3    11    12    1
     4    12    13    2
     5    13    14    1
     6    14     1    1
     7     1     2   ar
     8     2     3   ar
     9     3     4   ar
    10     4    19    1
    11    19    20    2
    12    19    21    1
    13    21    22    2
    14    22    23    1
    15    23    24    2
    16    24    25    1
    17    25    26    2
    18    26    30    1
    19    30    31    1
    20    31    32    1
    21    32    33    1
    22    33    34    1
    23    34    35    1
    24    35    36    1
    25    26    27    1
    26    27    28    1
    27    28    29    2
    28     4     5   ar
    29     5     6    1
    30    14    15    2
    31    15    16    1
    32    16    17    1
    33    17    18    2
    34    18    10    1
    35    17    12    1
    36     5     1   ar
    37    29    21    1
    38    28    23    1
    39    36    31    1
    40     6     7    1
    41     6     8    1
@<TRIPOS>MOLECULE
*****
 36 41 0 0 0
SMALL
GASTEIGER

@<TRIPOS>ATOM
      1 N         141.0415  139.4019  157.9526 N.ar    1  UNL1       -0.2166
      2 N         141.7753  140.6778  157.6635 N.ar    1  UNL1       -0.1622
      3 C         141.2361  141.7396  158.5756 C.ar    1  UNL1        0.1265
      4 C         140.1689  141.1199  159.4284 C.ar    1  UNL1        0.0924
      5 C         140.0487  139.6751  159.0434 C.ar    1  UNL1        0.1315
      6 N         139.1019  138.6786  159.6437 N.pl3   1  UNL1       -0.3425
      7 H         138.4847  138.9550  160.3592 H       1  UNL1        0.1437
      8 H         139.0978  137.7480  159.3224 H       1  UNL1        0.1437
      9 C         144.2765  132.5436  155.9224 C.3     1  UNL1        0.1367
     10 C         143.4558  133.7838  156.1182 C.2     1  UNL1        0.3518
     11 N         143.7670  134.9071  157.0622 N.2     1  UNL1       -0.0350
     12 C         142.6833  135.9361  156.9317 C.2     1  UNL1        0.2332
     13 C         142.4631  137.2538  157.6136 C.2     1  UNL1        0.0690
     14 C         141.2618  138.0841  157.2707 C.2     1  UNL1        0.0842
     15 C         140.2809  137.5967  156.2460 C.2     1  UNL1        0.0020
     16 C         140.5011  136.2789  155.5641 C.3     1  UNL1        0.1053
     17 C         141.7024  135.4486  155.9070 C.2     1  UNL1        0.2175
     18 N         142.1798  134.1185  155.4042 N.2     1  UNL1       -0.0389
     19 C         139.3635  141.8217  160.4813 C.2     1  UNL1        0.2173
     20 O         138.4699  142.9658  160.1036 O.2     1  UNL1       -0.2848
     21 C         139.4516  141.3795  161.9119 C.2     1  UNL1        0.1199
     22 C         138.3499  140.7453  162.7082 C.2     1  UNL1        0.0235
     23 C         138.8744  140.4677  164.0859 C.2     1  UNL1        0.0155
     24 C         138.2379  139.8535  165.2973 C.2     1  UNL1        0.0006
     25 C         139.0272  139.7017  166.5638 C.2     1  UNL1       -0.0067
     26 C         140.4529  140.1643  166.6188 C.2     1  UNL1       -0.0223
     27 C         141.0895  140.7785  165.4074 C.3     1  UNL1        0.0691
     28 C         140.3002  140.9302  164.1410 C.2     1  UNL1        0.0632
     29 N         140.6570  141.4937  162.7974 N.2     1  UNL1       -0.2461
     30 C         141.2422  140.0126  167.8853 C.3     1  UNL1        0.0954
     31 N         141.4454  141.1929  168.7884 N.3     1  UNL1       -0.2649
     32 C         140.2607  141.9477  169.3141 C.3     1  UNL1        0.1049
     33 C         140.4639  143.1281  170.2171 C.3     1  UNL1        0.1595
     34 O         141.8518  143.5536  170.5944 O.3     1  UNL1       -0.3508
     35 C         143.0366  142.7988  170.0687 C.3     1  UNL1        0.1595
     36 C         142.8334  141.6184  169.1656 C.3     1  UNL1        0.1049
@<TRIPOS>BOND
     1     9    10    1
     2    10    11    2
     3    11    12    1
     4    12    13    2
     5    13    14    1
     6    14     1    1
     7     1     2   ar
     8     2     3   ar
     9     3     4   ar
    10     4    19    1
    11    19    20    2
    12    19    21    1
    13    21    22    2
    14    22    23    1
    15    23    24    2
    16    24    25    1
    17    25    26    2
    18    26    30    1
    19    30    31    1
    20    31    32    1
    21    32    33    1
    22    33    34    1
    23    34    35    1
    24    35    36    1
    25    26    27    1
    26    27    28    1
    27    28    29    2
    28     4     5   ar
    29     5     6    1
    30    14    15    2
    31    15    16    1
    32    16    17    1
    33    17    18    2
    34    18    10    1
    35    17    12    1
    36     5     1   ar
    37    29    21    1
    38    28    23    1
    39    36    31    1
    40     6     7    1
    41     6     8    1
