@<TRIPOS>MOLECULE
*****
 40 43 0 0 0
SMALL
GASTEIGER

@<TRIPOS>ATOM
      1 C         140.1829  139.7600  165.6325 C.ar    1  UNL1        0.1690
      2 C         141.5549  139.2193  165.9064 C.ar    1  UNL1        0.1749
      3 C         142.3891  138.6847  164.7801 C.ar    1  UNL1        0.0776
      4 C         141.8512  138.6910  163.3799 C.ar    1  UNL1        0.1512
      5 O         142.6854  138.1565  162.2537 O.2     1  UNL1       -0.4530
      6 C         142.1475  138.1627  160.8534 C.ar    1  UNL1        0.1543
      7 C         142.9816  137.6282  159.7272 C.ar    1  UNL1        0.0747
      8 C         142.4437  137.6345  158.3269 C.ar    1  UNL1        0.1445
      9 C         141.0717  138.1752  158.0529 C.ar    1  UNL1        0.0677
     10 C         140.2375  138.7097  159.1792 C.ar    1  UNL1        0.1425
     11 O         138.8655  139.2505  158.9053 O.3     1  UNL1       -0.5052
     12 C         140.7754  138.7035  160.5794 C.ar    1  UNL1        0.1073
     13 C         139.9413  139.2380  161.7058 C.ar    1  UNL1        0.2042
     14 O         138.5692  139.7788  161.4318 O.2     1  UNL1       -0.2863
     15 C         140.4792  139.2318  163.1060 C.ar    1  UNL1        0.0731
     16 C         139.6450  139.7663  164.2322 C.ar    1  UNL1        0.0252
     17 C         140.5338  138.1815  156.6527 C.2     1  UNL1        0.0049
     18 C         141.3679  137.6470  155.5265 C.2     1  UNL1        0.0130
     19 C         142.7400  137.1062  155.8005 C.3     1  UNL1        0.1517
     20 C         144.0878  136.4937  155.5589 C.3     1  UNL1        0.0483
     21 C         142.6702  136.8998  154.3164 C.3     1  UNL1        0.0483
     22 O         143.2779  137.0999  157.2007 O.3     1  UNL1       -0.4783
     23 H         138.5295  139.2544  158.0306 H       1  UNL1        0.2922
     24 C         138.5768  139.3516  167.6333 C.3     1  UNL1        0.2526
     25 O         139.3487  140.2945  166.7587 O.3     1  UNL1       -0.4687
     26 O         142.0928  139.2130  167.3066 O.3     1  UNL1       -0.4723
     27 C         142.7323  140.4474  167.8699 C.3     1  UNL1        0.2056
     28 C         142.5053  141.7764  167.2126 C.3     1  UNL1        0.0473
     29 C         143.5143  142.3154  166.2423 C.3     1  UNL1        0.0038
     30 C         143.2598  142.2232  164.7669 C.3     1  UNL1        0.0005
     31 C         141.9454  142.6752  164.2029 C.3     1  UNL1        0.0059
     32 C         141.5880  144.1319  164.2084 C.3     1  UNL1        0.0417
     33 C         141.7715  144.9539  162.9672 C.2     1  UNL1        0.0503
     34 O         140.6620  145.8397  162.4834 O.co2   1  UNL1       -0.5492
     35 O         143.0648  144.8901  162.2099 O.co2   1  UNL1       -0.5492
     36 C         138.2730  140.3070  163.9582 C.3     1  UNL1        0.0550
     37 C         137.8833  141.6605  164.4746 C.2     1  UNL1       -0.0298
     38 C         138.1408  142.8827  163.6440 C.2     1  UNL1       -0.0475
     39 C         137.7512  144.2360  164.1602 C.3     1  UNL1        0.0260
     40 C         138.7878  142.7515  162.2970 C.3     1  UNL1        0.0260
@<TRIPOS>UNITY_ATOM_ATTR
34 1
charge -1
@<TRIPOS>BOND
     1    24    25    1
     2    25     1    1
     3     1     2   ar
     4     2    26    1
     5    26    27    1
     6    27    28    1
     7    28    29    1
     8    29    30    1
     9    30    31    1
    10    31    32    1
    11    32    33    1
    12    33    34   ar
    13    33    35   ar
    14     2     3   ar
    15     3     4   ar
    16     4     5   ar
    17     5     6   ar
    18     6     7   ar
    19     7     8   ar
    20     8     9   ar
    21     9    10   ar
    22    10    11    1
    23    10    12   ar
    24    12    13   ar
    25    13    14    2
    26    13    15   ar
    27    15    16   ar
    28    16    36    1
    29    36    37    1
    30    37    38    2
    31    38    39    1
    32    38    40    1
    33     9    17    1
    34    17    18    2
    35    18    19    1
    36    19    20    1
    37    19    21    1
    38    19    22    1
    39    16     1   ar
    40    15     4   ar
    41    12     6   ar
    42    22     8    1
    43    11    23    1
@<TRIPOS>MOLECULE
*****
 40 43 0 0 0
SMALL
GASTEIGER

@<TRIPOS>ATOM
      1 C         141.1516  141.2087  165.2526 C.ar    1  UNL1        0.1690
      2 C         142.6505  141.2568  165.2245 C.ar    1  UNL1        0.1749
      3 C         143.3944  140.7616  164.0197 C.ar    1  UNL1        0.0776
      4 C         142.6393  140.2184  162.8430 C.ar    1  UNL1        0.1512
      5 O         143.3831  139.7233  161.6382 O.2     1  UNL1       -0.4530
      6 C         142.6280  139.1800  160.4614 C.ar    1  UNL1        0.1543
      7 C         143.3719  138.6849  159.2567 C.ar    1  UNL1        0.0747
      8 C         142.6168  138.1417  158.0799 C.ar    1  UNL1        0.1445
      9 C         141.1178  138.0936  158.1079 C.ar    1  UNL1        0.0677
     10 C         140.3739  138.5888  159.3128 C.ar    1  UNL1        0.1425
     11 O         138.8750  138.5408  159.3408 O.3     1  UNL1       -0.5052
     12 C         141.1290  139.1320  160.4895 C.ar    1  UNL1        0.1073
     13 C         140.3852  139.6272  161.6943 C.ar    1  UNL1        0.2042
     14 O         138.8862  139.5792  161.7223 O.2     1  UNL1       -0.2863
     15 C         141.1403  140.1704  162.8710 C.ar    1  UNL1        0.0731
     16 C         140.3965  140.6655  164.0758 C.ar    1  UNL1        0.0252
     17 C         140.3627  137.5505  156.9312 C.2     1  UNL1        0.0049
     18 C         141.1065  137.0553  155.7265 C.2     1  UNL1        0.0130
     19 C         142.6055  137.1034  155.6984 C.3     1  UNL1        0.1517
     20 C         144.0118  136.9434  155.2017 C.3     1  UNL1        0.0483
     21 C         142.3388  136.5046  154.3492 C.3     1  UNL1        0.0483
     22 O         143.3606  137.6465  156.8751 O.3     1  UNL1       -0.4783
     23 H         138.4033  138.2015  158.6057 H       1  UNL1        0.2922
     24 C         140.0772  143.1611  166.5880 C.3     1  UNL1        0.2526
     25 O         140.4077  141.7039  166.4573 O.3     1  UNL1       -0.4687
     26 O         143.4056  141.8000  166.4013 O.3     1  UNL1       -0.4723
     27 C         143.9826  143.1836  166.3484 C.3     1  UNL1        0.2056
     28 C         144.5242  143.7215  165.0572 C.3     1  UNL1        0.0473
     29 C         143.8300  144.8589  164.3686 C.3     1  UNL1        0.0038
     30 C         142.9581  144.5944  163.1769 C.3     1  UNL1        0.0005
     31 C         141.4865  144.3687  163.3597 C.3     1  UNL1        0.0059
     32 C         140.6684  143.8074  162.2348 C.3     1  UNL1        0.0417
     33 C         139.3163  144.3817  161.9314 C.2     1  UNL1        0.0503
     34 O         139.1443  145.8659  161.7997 O.co2   1  UNL1       -0.5492
     35 O         138.1363  143.4717  161.7597 O.co2   1  UNL1       -0.5492
     36 C         138.8975  140.6175  164.1038 C.3     1  UNL1        0.0550
     37 C         138.1852  140.1445  165.3363 C.2     1  UNL1       -0.0298
     38 C         138.2688  138.7035  165.7445 C.2     1  UNL1       -0.0475
     39 C         137.5566  138.2305  166.9769 C.3     1  UNL1        0.0260
     40 C         139.0648  137.7355  164.9201 C.3     1  UNL1        0.0260
@<TRIPOS>UNITY_ATOM_ATTR
34 1
charge -1
@<TRIPOS>BOND
     1    24    25    1
     2    25     1    1
     3     1     2   ar
     4     2    26    1
     5    26    27    1
     6    27    28    1
     7    28    29    1
     8    29    30    1
     9    30    31    1
    10    31    32    1
    11    32    33    1
    12    33    34   ar
    13    33    35   ar
    14     2     3   ar
    15     3     4   ar
    16     4     5   ar
    17     5     6   ar
    18     6     7   ar
    19     7     8   ar
    20     8     9   ar
    21     9    10   ar
    22    10    11    1
    23    10    12   ar
    24    12    13   ar
    25    13    14    2
    26    13    15   ar
    27    15    16   ar
    28    16    36    1
    29    36    37    1
    30    37    38    2
    31    38    39    1
    32    38    40    1
    33     9    17    1
    34    17    18    2
    35    18    19    1
    36    19    20    1
    37    19    21    1
    38    19    22    1
    39    16     1   ar
    40    15     4   ar
    41    12     6   ar
    42    22     8    1
    43    11    23    1
@<TRIPOS>MOLECULE
*****
 40 43 0 0 0
SMALL
GASTEIGER

@<TRIPOS>ATOM
      1 C         142.1416  142.0625  163.8181 C.ar    1  UNL1        0.1690
      2 C         142.6906  140.6684  163.7471 C.ar    1  UNL1        0.1749
      3 C         142.3229  139.7751  162.5995 C.ar    1  UNL1        0.0776
      4 C         141.4064  140.2759  161.5229 C.ar    1  UNL1        0.1512
      5 O         141.0389  139.3827  160.3754 O.2     1  UNL1       -0.4530
      6 C         140.1223  139.8835  159.2987 C.ar    1  UNL1        0.1543
      7 C         139.7547  138.9903  158.1511 C.ar    1  UNL1        0.0747
      8 C         138.8381  139.4911  157.0745 C.ar    1  UNL1        0.1445
      9 C         138.2892  140.8853  157.1455 C.ar    1  UNL1        0.0677
     10 C         138.6568  141.7785  158.2931 C.ar    1  UNL1        0.1425
     11 O         138.1079  143.1727  158.3641 O.3     1  UNL1       -0.5052
     12 C         139.5733  141.2777  159.3697 C.ar    1  UNL1        0.1073
     13 C         139.9409  142.1710  160.5173 C.ar    1  UNL1        0.2042
     14 O         139.3920  143.5651  160.5883 O.2     1  UNL1       -0.2863
     15 C         140.8575  141.6701  161.5939 C.ar    1  UNL1        0.0731
     16 C         141.2250  142.5633  162.7414 C.ar    1  UNL1        0.0252
     17 C         137.3727  141.3861  156.0689 C.2     1  UNL1        0.0049
     18 C         137.0051  140.4929  154.9213 C.2     1  UNL1        0.0130
     19 C         137.5541  139.0987  154.8503 C.3     1  UNL1        0.1517
     20 C         137.8163  137.7112  154.3444 C.3     1  UNL1        0.0483
     21 C         136.7286  139.1177  153.5981 C.3     1  UNL1        0.0483
     22 O         138.4706  138.5979  155.9269 O.3     1  UNL1       -0.4783
     23 H         137.5353  143.4856  157.6915 H       1  UNL1        0.2922
     24 C         143.8437  143.6403  164.9856 C.3     1  UNL1        0.2526
     25 O         142.5092  142.9557  164.9657 O.3     1  UNL1       -0.4687
     26 O         143.6071  140.1675  164.8237 O.3     1  UNL1       -0.4723
     27 C         143.0521  139.3862  165.9777 C.3     1  UNL1        0.2056
     28 C         141.8544  139.8970  166.7224 C.3     1  UNL1        0.0473
     29 C         140.4738  139.5381  166.2587 C.3     1  UNL1        0.0038
     30 C         139.4569  140.6161  166.0260 C.3     1  UNL1        0.0005
     31 C         138.2599  140.3444  165.1638 C.3     1  UNL1        0.0059
     32 C         138.4171  140.2310  163.6764 C.3     1  UNL1        0.0417
     33 C         138.3284  138.8886  163.0130 C.2     1  UNL1        0.0503
     34 O         138.8737  137.6735  163.7031 O.co2   1  UNL1       -0.5492
     35 O         137.6943  138.7613  161.6596 O.co2   1  UNL1       -0.5492
     36 C         140.6761  143.9575  162.8124 C.3     1  UNL1        0.0550
     37 C         140.2421  144.5264  164.1308 C.2     1  UNL1       -0.0298
     38 C         138.7969  144.4780  164.5293 C.2     1  UNL1       -0.0475
     39 C         138.3629  145.0469  165.8476 C.3     1  UNL1        0.0260
     40 C         137.7855  143.8606  163.6095 C.3     1  UNL1        0.0260
@<TRIPOS>UNITY_ATOM_ATTR
34 1
charge -1
@<TRIPOS>BOND
     1    24    25    1
     2    25     1    1
     3     1     2   ar
     4     2    26    1
     5    26    27    1
     6    27    28    1
     7    28    29    1
     8    29    30    1
     9    30    31    1
    10    31    32    1
    11    32    33    1
    12    33    34   ar
    13    33    35   ar
    14     2     3   ar
    15     3     4   ar
    16     4     5   ar
    17     5     6   ar
    18     6     7   ar
    19     7     8   ar
    20     8     9   ar
    21     9    10   ar
    22    10    11    1
    23    10    12   ar
    24    12    13   ar
    25    13    14    2
    26    13    15   ar
    27    15    16   ar
    28    16    36    1
    29    36    37    1
    30    37    38    2
    31    38    39    1
    32    38    40    1
    33     9    17    1
    34    17    18    2
    35    18    19    1
    36    19    20    1
    37    19    21    1
    38    19    22    1
    39    16     1   ar
    40    15     4   ar
    41    12     6   ar
    42    22     8    1
    43    11    23    1
@<TRIPOS>MOLECULE
*****
 40 43 0 0 0
SMALL
GASTEIGER

@<TRIPOS>ATOM
      1 C         141.1540  139.0310  158.9987 C.ar    1  UNL1        0.1690
      2 C         139.6575  138.9495  159.0607 C.ar    1  UNL1        0.1749
      3 C         138.9544  139.0595  160.3812 C.ar    1  UNL1        0.0776
      4 C         139.7479  139.2510  161.6397 C.ar    1  UNL1        0.1512
      5 O         139.0449  139.3610  162.9601 O.2     1  UNL1       -0.4530
      6 C         139.8383  139.5525  164.2186 C.ar    1  UNL1        0.1543
      7 C         139.1353  139.6625  165.5390 C.ar    1  UNL1        0.0747
      8 C         139.9287  139.8540  166.7976 C.ar    1  UNL1        0.1445
      9 C         141.4252  139.9355  166.7356 C.ar    1  UNL1        0.0677
     10 C         142.1283  139.8255  165.4151 C.ar    1  UNL1        0.1425
     11 O         143.6248  139.9071  165.3531 O.3     1  UNL1       -0.5052
     12 C         141.3348  139.6340  164.1566 C.ar    1  UNL1        0.1073
     13 C         142.0379  139.5240  162.8361 C.ar    1  UNL1        0.2042
     14 O         143.5344  139.6056  162.7741 O.2     1  UNL1       -0.2863
     15 C         141.2444  139.3325  161.5777 C.ar    1  UNL1        0.0731
     16 C         141.9474  139.2225  160.2572 C.ar    1  UNL1        0.0252
     17 C         142.2187  140.1270  167.9940 C.2     1  UNL1        0.0049
     18 C         141.5156  140.2370  169.3144 C.2     1  UNL1        0.0130
     19 C         140.0191  140.1555  169.3764 C.3     1  UNL1        0.1517
     20 C         138.6308  140.1384  169.9440 C.3     1  UNL1        0.0483
     21 C         140.3304  140.3411  170.8320 C.3     1  UNL1        0.0483
     22 O         139.2257  139.9640  168.1180 O.3     1  UNL1       -0.4783
     23 H         144.1204  140.0267  166.1392 H       1  UNL1        0.2922
     24 C         142.1871  137.5708  157.1145 C.3     1  UNL1        0.2526
     25 O         141.8570  138.9210  157.6783 O.3     1  UNL1       -0.4687
     26 O         138.8640  138.7580  157.8023 O.3     1  UNL1       -0.4723
     27 C         138.6623  139.9079  156.8605 C.3     1  UNL1        0.2056
     28 C         137.9761  141.1545  157.3350 C.3     1  UNL1        0.0473
     29 C         138.7699  142.2427  157.9950 C.3     1  UNL1        0.0038
     30 C         138.5557  142.5520  159.4471 C.3     1  UNL1        0.0005
     31 C         139.7343  142.7401  160.3557 C.3     1  UNL1        0.0059
     32 C         139.5219  142.9569  161.8246 C.3     1  UNL1        0.0417
     33 C         138.1401  143.2016  162.3545 C.2     1  UNL1        0.0503
     34 O         137.2122  142.0471  162.5910 O.co2   1  UNL1       -0.5492
     35 O         137.6862  144.6009  162.6479 O.co2   1  UNL1       -0.5492
     36 C         143.4439  139.3041  160.1952 C.3     1  UNL1        0.0550
     37 C         144.1050  140.2121  159.2010 C.2     1  UNL1       -0.0298
     38 C         144.0974  141.6961  159.4197 C.2     1  UNL1       -0.0475
     39 C         144.7584  142.6041  158.4255 C.3     1  UNL1        0.0260
     40 C         143.4286  142.2720  160.6326 C.3     1  UNL1        0.0260
@<TRIPOS>UNITY_ATOM_ATTR
34 1
charge -1
@<TRIPOS>BOND
     1    24    25    1
     2    25     1    1
     3     1     2   ar
     4     2    26    1
     5    26    27    1
     6    27    28    1
     7    28    29    1
     8    29    30    1
     9    30    31    1
    10    31    32    1
    11    32    33    1
    12    33    34   ar
    13    33    35   ar
    14     2     3   ar
    15     3     4   ar
    16     4     5   ar
    17     5     6   ar
    18     6     7   ar
    19     7     8   ar
    20     8     9   ar
    21     9    10   ar
    22    10    11    1
    23    10    12   ar
    24    12    13   ar
    25    13    14    2
    26    13    15   ar
    27    15    16   ar
    28    16    36    1
    29    36    37    1
    30    37    38    2
    31    38    39    1
    32    38    40    1
    33     9    17    1
    34    17    18    2
    35    18    19    1
    36    19    20    1
    37    19    21    1
    38    19    22    1
    39    16     1   ar
    40    15     4   ar
    41    12     6   ar
    42    22     8    1
    43    11    23    1
@<TRIPOS>MOLECULE
*****
 40 43 0 0 0
SMALL
GASTEIGER

@<TRIPOS>ATOM
      1 C         143.5160  140.4213  158.8459 C.ar    1  UNL1        0.1690
      2 C         143.3811  138.9357  159.0027 C.ar    1  UNL1        0.1749
      3 C         143.2260  138.3367  160.3692 C.ar    1  UNL1        0.0776
      4 C         143.2058  139.2234  161.5788 C.ar    1  UNL1        0.1512
      5 O         143.0507  138.6244  162.9453 O.2     1  UNL1       -0.4530
      6 C         143.0305  139.5111  164.1550 C.ar    1  UNL1        0.1543
      7 C         142.8754  138.9121  165.5214 C.ar    1  UNL1        0.0747
      8 C         142.8552  139.7989  166.7312 C.ar    1  UNL1        0.1445
      9 C         142.9901  141.2845  166.5744 C.ar    1  UNL1        0.0677
     10 C         143.1453  141.8835  165.2079 C.ar    1  UNL1        0.1425
     11 O         143.2802  143.3692  165.0512 O.3     1  UNL1       -0.5052
     12 C         143.1654  140.9968  163.9983 C.ar    1  UNL1        0.1073
     13 C         143.3205  141.5958  162.6317 C.ar    1  UNL1        0.2042
     14 O         143.4555  143.0814  162.4750 O.2     1  UNL1       -0.2863
     15 C         143.3407  140.7091  161.4221 C.ar    1  UNL1        0.0731
     16 C         143.4958  141.3080  160.0557 C.ar    1  UNL1        0.0252
     17 C         142.9700  142.1712  167.7841 C.2     1  UNL1        0.0049
     18 C         142.8149  141.5722  169.1505 C.2     1  UNL1        0.0130
     19 C         142.6799  140.0866  169.3072 C.3     1  UNL1        0.1517
     20 C         142.5185  138.7474  169.9633 C.3     1  UNL1        0.0483
     21 C         142.6037  140.5082  170.7447 C.3     1  UNL1        0.0483
     22 O         142.7001  139.1999  168.0976 O.3     1  UNL1       -0.4783
     23 H         143.2676  143.9231  165.8068 H       1  UNL1        0.2922
     24 C         145.0238  141.0745  156.8336 C.3     1  UNL1        0.2526
     25 O         143.6711  141.0203  157.4795 O.3     1  UNL1       -0.4687
     26 O         143.4013  138.0490  157.7930 O.3     1  UNL1       -0.4723
     27 C         142.1138  137.5471  157.2094 C.3     1  UNL1        0.2056
     28 C         140.9283  138.4608  157.1112 C.3     1  UNL1        0.0473
     29 C         139.7776  138.3009  158.0600 C.3     1  UNL1        0.0038
     30 C         139.1496  139.5099  158.6878 C.3     1  UNL1        0.0005
     31 C         139.9155  140.3150  159.6954 C.3     1  UNL1        0.0059
     32 C         139.6676  140.1140  161.1610 C.3     1  UNL1        0.0417
     33 C         139.1118  138.8117  161.6560 C.2     1  UNL1        0.0503
     34 O         140.0024  137.6098  161.7665 O.co2   1  UNL1       -0.5492
     35 O         137.6653  138.7113  162.0404 O.co2   1  UNL1       -0.5492
     36 C         143.6307  142.7937  159.8989 C.3     1  UNL1        0.0550
     37 C         142.7887  143.5213  158.8931 C.2     1  UNL1       -0.0298
     38 C         141.4101  143.9827  159.2624 C.2     1  UNL1       -0.0475
     39 C         140.5680  144.7102  158.2567 C.3     1  UNL1        0.0260
     40 C         140.8734  143.7165  160.6377 C.3     1  UNL1        0.0260
@<TRIPOS>UNITY_ATOM_ATTR
34 1
charge -1
@<TRIPOS>BOND
     1    24    25    1
     2    25     1    1
     3     1     2   ar
     4     2    26    1
     5    26    27    1
     6    27    28    1
     7    28    29    1
     8    29    30    1
     9    30    31    1
    10    31    32    1
    11    32    33    1
    12    33    34   ar
    13    33    35   ar
    14     2     3   ar
    15     3     4   ar
    16     4     5   ar
    17     5     6   ar
    18     6     7   ar
    19     7     8   ar
    20     8     9   ar
    21     9    10   ar
    22    10    11    1
    23    10    12   ar
    24    12    13   ar
    25    13    14    2
    26    13    15   ar
    27    15    16   ar
    28    16    36    1
    29    36    37    1
    30    37    38    2
    31    38    39    1
    32    38    40    1
    33     9    17    1
    34    17    18    2
    35    18    19    1
    36    19    20    1
    37    19    21    1
    38    19    22    1
    39    16     1   ar
    40    15     4   ar
    41    12     6   ar
    42    22     8    1
    43    11    23    1
@<TRIPOS>MOLECULE
*****
 40 43 0 0 0
SMALL
GASTEIGER

@<TRIPOS>ATOM
      1 C         141.1519  142.8517  162.4941 C.ar    1  UNL1        0.1690
      2 C         140.0645  143.5129  161.7001 C.ar    1  UNL1        0.1749
      3 C         139.6232  142.9208  160.3944 C.ar    1  UNL1        0.0776
      4 C         140.2693  141.6675  159.8829 C.ar    1  UNL1        0.1512
      5 O         139.8280  141.0754  158.5773 O.2     1  UNL1       -0.4530
      6 C         140.4740  139.8220  158.0656 C.ar    1  UNL1        0.1543
      7 C         140.0327  139.2299  156.7600 C.ar    1  UNL1        0.0747
      8 C         140.6788  137.9765  156.2483 C.ar    1  UNL1        0.1445
      9 C         141.7661  137.3153  157.0423 C.ar    1  UNL1        0.0677
     10 C         142.2074  137.9075  158.3480 C.ar    1  UNL1        0.1425
     11 O         143.2948  137.2462  159.1420 O.3     1  UNL1       -0.5052
     12 C         141.5614  139.1608  158.8596 C.ar    1  UNL1        0.1073
     13 C         142.0027  139.7529  160.1653 C.ar    1  UNL1        0.2042
     14 O         143.0901  139.0917  160.9593 O.2     1  UNL1       -0.2863
     15 C         141.3566  141.0062  160.6768 C.ar    1  UNL1        0.0731
     16 C         141.7980  141.5983  161.9824 C.ar    1  UNL1        0.0252
     17 C         142.4122  136.0620  156.5307 C.2     1  UNL1        0.0049
     18 C         141.9709  135.4699  155.2251 C.2     1  UNL1        0.0130
     19 C         140.8835  136.1311  154.4312 C.3     1  UNL1        0.1517
     20 C         139.9022  136.3880  153.3262 C.3     1  UNL1        0.0483
     21 C         141.1888  134.9670  153.5358 C.3     1  UNL1        0.0483
     22 O         140.2375  137.3844  154.9427 O.3     1  UNL1       -0.4783
     23 H         143.6984  136.4633  158.8224 H       1  UNL1        0.2922
     24 C         142.3996  144.7085  163.8152 C.3     1  UNL1        0.2526
     25 O         141.5932  143.4438  163.7997 O.3     1  UNL1       -0.4687
     26 O         139.4185  144.7663  162.2117 O.3     1  UNL1       -0.4723
     27 C         138.1284  144.6881  162.9731 C.3     1  UNL1        0.2056
     28 C         138.1169  144.1603  164.3770 C.3     1  UNL1        0.0473
     29 C         137.7887  142.7193  164.6339 C.3     1  UNL1        0.0038
     30 C         137.6278  141.7702  163.4835 C.3     1  UNL1        0.0005
     31 C         137.8228  140.2977  163.6932 C.3     1  UNL1        0.0059
     32 C         139.0465  139.6188  163.1532 C.3     1  UNL1        0.0417
     33 C         138.9076  138.4221  162.2597 C.2     1  UNL1        0.0503
     34 O         137.5858  138.1113  161.6223 O.co2   1  UNL1       -0.5492
     35 O         140.0905  137.5359  162.0036 O.co2   1  UNL1       -0.5492
     36 C         142.8853  140.9371  162.7764 C.3     1  UNL1        0.0550
     37 C         142.5454  140.1694  164.0195 C.2     1  UNL1       -0.0298
     38 C         143.6276  139.4736  164.7907 C.2     1  UNL1       -0.0475
     39 C         143.2877  138.7059  166.0337 C.3     1  UNL1        0.0260
     40 C         145.0496  139.5454  164.3188 C.3     1  UNL1        0.0260
@<TRIPOS>UNITY_ATOM_ATTR
34 1
charge -1
@<TRIPOS>BOND
     1    24    25    1
     2    25     1    1
     3     1     2   ar
     4     2    26    1
     5    26    27    1
     6    27    28    1
     7    28    29    1
     8    29    30    1
     9    30    31    1
    10    31    32    1
    11    32    33    1
    12    33    34   ar
    13    33    35   ar
    14     2     3   ar
    15     3     4   ar
    16     4     5   ar
    17     5     6   ar
    18     6     7   ar
    19     7     8   ar
    20     8     9   ar
    21     9    10   ar
    22    10    11    1
    23    10    12   ar
    24    12    13   ar
    25    13    14    2
    26    13    15   ar
    27    15    16   ar
    28    16    36    1
    29    36    37    1
    30    37    38    2
    31    38    39    1
    32    38    40    1
    33     9    17    1
    34    17    18    2
    35    18    19    1
    36    19    20    1
    37    19    21    1
    38    19    22    1
    39    16     1   ar
    40    15     4   ar
    41    12     6   ar
    42    22     8    1
    43    11    23    1
@<TRIPOS>MOLECULE
*****
 40 43 0 0 0
SMALL
GASTEIGER

@<TRIPOS>ATOM
      1 C         141.9405  139.5709  159.1596 C.ar    1  UNL1        0.1690
      2 C         143.4022  139.6885  159.4753 C.ar    1  UNL1        0.1749
      3 C         143.8544  139.8085  160.9005 C.ar    1  UNL1        0.0776
      4 C         142.8449  139.8110  162.0100 C.ar    1  UNL1        0.1512
      5 O         143.2971  139.9310  163.4351 O.2     1  UNL1       -0.4530
      6 C         142.2876  139.9335  164.5446 C.ar    1  UNL1        0.1543
      7 C         142.7398  140.0535  165.9698 C.ar    1  UNL1        0.0747
      8 C         141.7303  140.0560  167.0793 C.ar    1  UNL1        0.1445
      9 C         140.2686  139.9384  166.7636 C.ar    1  UNL1        0.0677
     10 C         139.8164  139.8184  165.3384 C.ar    1  UNL1        0.1425
     11 O         138.3547  139.7008  165.0227 O.3     1  UNL1       -0.5052
     12 C         140.8259  139.8159  164.2289 C.ar    1  UNL1        0.1073
     13 C         140.3737  139.6959  162.8037 C.ar    1  UNL1        0.2042
     14 O         138.9120  139.5783  162.4880 O.2     1  UNL1       -0.2863
     15 C         141.3832  139.6934  161.6943 C.ar    1  UNL1        0.0731
     16 C         140.9310  139.5734  160.2691 C.ar    1  UNL1        0.0252
     17 C         139.2591  139.9409  167.8730 C.2     1  UNL1        0.0049
     18 C         139.7113  140.0609  169.2982 C.2     1  UNL1        0.0130
     19 C         141.1730  140.1785  169.6139 C.3     1  UNL1        0.1517
     20 C         142.4364  140.3132  170.4111 C.3     1  UNL1        0.0483
     21 C         140.6023  140.2277  171.0002 C.3     1  UNL1        0.0483
     22 O         142.1825  140.1760  168.5044 O.3     1  UNL1       -0.4783
     23 H         137.7241  139.7023  165.7157 H       1  UNL1        0.2922
     24 C         141.4899  138.1124  157.0574 C.3     1  UNL1        0.2526
     25 O         141.4883  139.4509  157.7345 O.3     1  UNL1       -0.4687
     26 O         144.4117  139.6860  158.3659 O.3     1  UNL1       -0.4723
     27 C         144.6756  140.9418  157.5892 C.3     1  UNL1        0.2056
     28 C         144.3768  142.2786  158.2006 C.3     1  UNL1        0.0473
     29 C         143.1236  143.0120  157.8246 C.3     1  UNL1        0.0038
     30 C         142.0657  143.2675  158.8570 C.3     1  UNL1        0.0005
     31 C         142.4099  143.2022  160.3155 C.3     1  UNL1        0.0059
     32 C         141.8837  144.2440  161.2577 C.3     1  UNL1        0.0417
     33 C         142.6546  144.5932  162.4961 C.2     1  UNL1        0.0503
     34 O         141.9326  144.8097  163.7929 O.co2   1  UNL1       -0.5492
     35 O         144.1476  144.7260  162.4377 O.co2   1  UNL1       -0.5492
     36 C         139.4693  139.4558  159.9534 C.3     1  UNL1        0.0550
     37 C         138.8826  140.2373  158.8154 C.2     1  UNL1       -0.0298
     38 C         138.4579  141.6609  159.0234 C.2     1  UNL1       -0.0475
     39 C         137.8712  142.4424  157.8854 C.3     1  UNL1        0.0260
     40 C         138.6200  142.3028  160.3694 C.3     1  UNL1        0.0260
@<TRIPOS>UNITY_ATOM_ATTR
34 1
charge -1
@<TRIPOS>BOND
     1    24    25    1
     2    25     1    1
     3     1     2   ar
     4     2    26    1
     5    26    27    1
     6    27    28    1
     7    28    29    1
     8    29    30    1
     9    30    31    1
    10    31    32    1
    11    32    33    1
    12    33    34   ar
    13    33    35   ar
    14     2     3   ar
    15     3     4   ar
    16     4     5   ar
    17     5     6   ar
    18     6     7   ar
    19     7     8   ar
    20     8     9   ar
    21     9    10   ar
    22    10    11    1
    23    10    12   ar
    24    12    13   ar
    25    13    14    2
    26    13    15   ar
    27    15    16   ar
    28    16    36    1
    29    36    37    1
    30    37    38    2
    31    38    39    1
    32    38    40    1
    33     9    17    1
    34    17    18    2
    35    18    19    1
    36    19    20    1
    37    19    21    1
    38    19    22    1
    39    16     1   ar
    40    15     4   ar
    41    12     6   ar
    42    22     8    1
    43    11    23    1
@<TRIPOS>MOLECULE
*****
 40 43 0 0 0
SMALL
GASTEIGER

@<TRIPOS>ATOM
      1 C         142.7214  140.6730  163.5032 C.ar    1  UNL1        0.1690
      2 C         143.6987  141.5889  162.8279 C.ar    1  UNL1        0.1749
      3 C         143.3757  142.1706  161.4835 C.ar    1  UNL1        0.0776
      4 C         142.0755  141.8365  160.8145 C.ar    1  UNL1        0.1512
      5 O         141.7526  142.4182  159.4702 O.2     1  UNL1       -0.4530
      6 C         140.4522  142.0841  158.8011 C.ar    1  UNL1        0.1543
      7 C         140.1293  142.6659  157.4567 C.ar    1  UNL1        0.0747
      8 C         138.8290  142.3317  156.7876 C.ar    1  UNL1        0.1445
      9 C         137.8517  141.4159  157.4629 C.ar    1  UNL1        0.0677
     10 C         138.1747  140.8341  158.8073 C.ar    1  UNL1        0.1425
     11 O         137.1973  139.9182  159.4826 O.3     1  UNL1       -0.5052
     12 C         139.4749  141.1682  159.4764 C.ar    1  UNL1        0.1073
     13 C         139.7979  140.5865  160.8207 C.ar    1  UNL1        0.2042
     14 O         138.8206  139.6706  161.4960 O.2     1  UNL1       -0.2863
     15 C         141.0982  140.9206  161.4898 C.ar    1  UNL1        0.0731
     16 C         141.4211  140.3389  162.8341 C.ar    1  UNL1        0.0252
     17 C         136.5514  141.0817  156.7939 C.2     1  UNL1        0.0049
     18 C         136.2285  141.6635  155.4496 C.2     1  UNL1        0.0130
     19 C         137.2058  142.5794  154.7743 C.3     1  UNL1        0.1517
     20 C         137.8036  143.4889  153.7421 C.3     1  UNL1        0.0483
     21 C         136.1131  142.5611  153.7468 C.3     1  UNL1        0.0483
     22 O         138.5060  142.9135  155.4433 O.3     1  UNL1       -0.4783
     23 H         136.3851  139.7095  159.0647 H       1  UNL1        0.2922
     24 C         143.8984  138.8622  164.9473 C.3     1  UNL1        0.2526
     25 O         143.0444  140.0912  164.8475 O.3     1  UNL1       -0.4687
     26 O         144.9990  141.9230  163.4969 O.3     1  UNL1       -0.4723
     27 C         145.0469  142.9853  164.5548 C.3     1  UNL1        0.2056
     28 C         143.8062  143.7525  164.9041 C.3     1  UNL1        0.0473
     29 C         143.3607  144.8930  164.0376 C.3     1  UNL1        0.0038
     30 C         141.8978  145.1738  163.8609 C.3     1  UNL1        0.0005
     31 C         140.9326  144.0396  163.6828 C.3     1  UNL1        0.0059
     32 C         139.9251  143.7372  164.7522 C.3     1  UNL1        0.0417
     33 C         138.6330  144.4974  164.8018 C.2     1  UNL1        0.0503
     34 O         138.3554  145.4309  165.9426 O.co2   1  UNL1       -0.5492
     35 O         137.6184  144.3240  163.7107 O.co2   1  UNL1       -0.5492
     36 C         140.4438  139.4230  163.5094 C.3     1  UNL1        0.0550
     37 C         139.7665  139.8521  164.7772 C.2     1  UNL1       -0.0298
     38 C         138.9694  138.8622  165.5738 C.2     1  UNL1       -0.0475
     39 C         138.2921  139.2913  166.8415 C.3     1  UNL1        0.0260
     40 C         138.8495  137.4431  165.1026 C.3     1  UNL1        0.0260
@<TRIPOS>UNITY_ATOM_ATTR
34 1
charge -1
@<TRIPOS>BOND
     1    24    25    1
     2    25     1    1
     3     1     2   ar
     4     2    26    1
     5    26    27    1
     6    27    28    1
     7    28    29    1
     8    29    30    1
     9    30    31    1
    10    31    32    1
    11    32    33    1
    12    33    34   ar
    13    33    35   ar
    14     2     3   ar
    15     3     4   ar
    16     4     5   ar
    17     5     6   ar
    18     6     7   ar
    19     7     8   ar
    20     8     9   ar
    21     9    10   ar
    22    10    11    1
    23    10    12   ar
    24    12    13   ar
    25    13    14    2
    26    13    15   ar
    27    15    16   ar
    28    16    36    1
    29    36    37    1
    30    37    38    2
    31    38    39    1
    32    38    40    1
    33     9    17    1
    34    17    18    2
    35    18    19    1
    36    19    20    1
    37    19    21    1
    38    19    22    1
    39    16     1   ar
    40    15     4   ar
    41    12     6   ar
    42    22     8    1
    43    11    23    1
@<TRIPOS>MOLECULE
*****
 40 43 0 0 0
SMALL
GASTEIGER

@<TRIPOS>ATOM
      1 C         139.7364  139.3298  158.9496 C.ar    1  UNL1        0.1690
      2 C         138.3886  139.9153  159.2509 C.ar    1  UNL1        0.1749
      3 C         138.0177  140.2559  160.6638 C.ar    1  UNL1        0.0776
      4 C         138.9945  140.0110  161.7755 C.ar    1  UNL1        0.1512
      5 O         138.6235  140.3517  163.1884 O.2     1  UNL1       -0.4530
      6 C         139.6004  140.1068  164.3002 C.ar    1  UNL1        0.1543
      7 C         139.2294  140.4474  165.7131 C.ar    1  UNL1        0.0747
      8 C         140.2062  140.2025  166.8248 C.ar    1  UNL1        0.1445
      9 C         141.5540  139.6170  166.5236 C.ar    1  UNL1        0.0677
     10 C         141.9249  139.2763  165.1106 C.ar    1  UNL1        0.1425
     11 O         143.2726  138.6908  164.8094 O.3     1  UNL1       -0.5052
     12 C         140.9481  139.5212  163.9989 C.ar    1  UNL1        0.1073
     13 C         141.3190  139.1806  162.5859 C.ar    1  UNL1        0.2042
     14 O         142.6668  138.5951  162.2847 O.2     1  UNL1       -0.2863
     15 C         140.3422  139.4255  161.4743 C.ar    1  UNL1        0.0731
     16 C         140.7132  139.0849  160.0614 C.ar    1  UNL1        0.0252
     17 C         142.5308  139.3721  167.6352 C.2     1  UNL1        0.0049
     18 C         142.1598  139.7127  169.0481 C.2     1  UNL1        0.0130
     19 C         140.8121  140.2982  169.3494 C.3     1  UNL1        0.1517
     20 C         139.6653  140.8673  170.1310 C.3     1  UNL1        0.0483
     21 C         141.3906  140.2509  170.7325 C.3     1  UNL1        0.0483
     22 O         139.8353  140.5431  168.2377 O.3     1  UNL1       -0.4783
     23 H         143.8828  138.5378  165.5038 H       1  UNL1        0.2922
     24 C         139.7632  137.6415  156.9751 C.3     1  UNL1        0.2526
     25 O         140.1073  138.9891  157.5367 O.3     1  UNL1       -0.4687
     26 O         137.4118  140.1602  158.1392 O.3     1  UNL1       -0.4723
     27 C         137.5855  141.3449  157.2356 C.3     1  UNL1        0.2056
     28 C         138.4415  142.4984  157.6674 C.3     1  UNL1        0.0473
     29 C         139.8991  142.5243  157.3142 C.3     1  UNL1        0.0038
     30 C         140.9103  142.9581  158.3337 C.3     1  UNL1        0.0005
     31 C         140.5522  142.9629  159.7903 C.3     1  UNL1        0.0059
     32 C         141.0329  144.0730  160.6771 C.3     1  UNL1        0.0417
     33 C         141.9733  143.7762  161.8075 C.2     1  UNL1        0.0503
     34 O         143.3006  144.4709  161.8808 O.co2   1  UNL1       -0.5492
     35 O         141.5862  142.7847  162.8644 O.co2   1  UNL1       -0.5492
     36 C         142.0609  138.4993  159.7602 C.3     1  UNL1        0.0550
     37 C         142.8678  139.0265  158.6107 C.2     1  UNL1       -0.0298
     38 C         143.6838  140.2741  158.7770 C.2     1  UNL1       -0.0475
     39 C         144.4906  140.8013  157.6277 C.3     1  UNL1        0.0260
     40 C         143.6930  140.9945  160.0927 C.3     1  UNL1        0.0260
@<TRIPOS>UNITY_ATOM_ATTR
34 1
charge -1
@<TRIPOS>BOND
     1    24    25    1
     2    25     1    1
     3     1     2   ar
     4     2    26    1
     5    26    27    1
     6    27    28    1
     7    28    29    1
     8    29    30    1
     9    30    31    1
    10    31    32    1
    11    32    33    1
    12    33    34   ar
    13    33    35   ar
    14     2     3   ar
    15     3     4   ar
    16     4     5   ar
    17     5     6   ar
    18     6     7   ar
    19     7     8   ar
    20     8     9   ar
    21     9    10   ar
    22    10    11    1
    23    10    12   ar
    24    12    13   ar
    25    13    14    2
    26    13    15   ar
    27    15    16   ar
    28    16    36    1
    29    36    37    1
    30    37    38    2
    31    38    39    1
    32    38    40    1
    33     9    17    1
    34    17    18    2
    35    18    19    1
    36    19    20    1
    37    19    21    1
    38    19    22    1
    39    16     1   ar
    40    15     4   ar
    41    12     6   ar
    42    22     8    1
    43    11    23    1
