@<TRIPOS>MOLECULE
*****
 33 37 0 0 0
SMALL
GASTEIGER

@<TRIPOS>ATOM
      1 C         139.4356  139.3605  165.9607 C.3     1  UNL1        0.2310
      2 N         138.3466  138.3411  166.1185 N.2     1  UNL1       -0.0614
      3 C         137.7917  138.4667  167.5064 C.2     1  UNL1        0.3157
      4 N         136.6851  137.6404  168.0916 N.pl3   1  UNL1       -0.2464
      5 C         138.5378  139.5638  168.2064 C.ar    1  UNL1        0.1094
      6 C         138.4232  140.1310  169.5902 C.ar    1  UNL1        0.1470
      7 F         137.4073  139.5786  170.5455 F       1  UNL1       -0.2039
      8 C         139.3247  141.2507  170.0187 C.ar    1  UNL1        0.0299
      9 C         140.3407  141.8031  169.0634 C.ar    1  UNL1        0.0021
     10 C         140.4552  141.2358  167.6796 C.ar    1  UNL1        0.0008
     11 C         139.5538  140.1162  167.2511 C.ar    1  UNL1        0.0390
     12 H         136.2548  136.9397  167.5503 H       1  UNL1        0.2884
     13 H         136.3891  137.7987  169.0171 H       1  UNL1        0.2884
     14 C         138.6256  138.5506  162.1610 C.ar    1  UNL1        0.2248
     15 C         138.5111  139.1179  163.5448 C.ar    1  UNL1        0.0581
     16 C         139.5501  138.7932  164.5768 C.ar    1  UNL1        0.0359
     17 C         140.7036  137.9011  164.2250 C.ar    1  UNL1        0.0213
     18 C         140.8180  137.3339  162.8412 C.ar    1  UNL1        0.1019
     19 N         139.7790  137.6586  161.8091 N.ar    1  UNL1       -0.2102
     20 C         137.7222  140.1123  160.2916 C.3     1  UNL1        0.2542
     21 O         137.5866  138.8753  161.1289 O.3     1  UNL1       -0.4561
     22 C         140.5485  140.2613  165.5136 C.ar    1  UNL1        0.0297
     23 C         141.9496  140.0155  165.9897 C.ar    1  UNL1        0.0004
     24 C         143.0626  140.9163  165.5426 C.ar    1  UNL1       -0.0002
     25 C         142.7745  142.0629  164.6193 C.ar    1  UNL1        0.0001
     26 C         141.3734  142.3087  164.1432 C.ar    1  UNL1        0.0028
     27 C         140.2604  141.4079  164.5903 C.ar    1  UNL1        0.0005
     28 C         141.0852  143.4553  163.2200 C.ar    1  UNL1        0.0384
     29 C         142.0419  143.7852  162.1126 C.ar    1  UNL1        0.1022
     30 N         141.7538  144.9316  161.1894 N.ar    1  UNL1       -0.2224
     31 C         140.5090  145.7483  161.3735 C.ar    1  UNL1        0.1989
     32 N         139.5525  145.4184  162.4808 N.ar    1  UNL1       -0.2224
     33 C         139.8406  144.2719  163.4041 C.ar    1  UNL1        0.1022
@<TRIPOS>BOND
     1    20    21    1
     2    21    14    1
     3    14    15   ar
     4    15    16   ar
     5    16     1    1
     6     1    22    1
     7    22    23   ar
     8    23    24   ar
     9    24    25   ar
    10    25    26   ar
    11    26    28    1
    12    28    29   ar
    13    29    30   ar
    14    30    31   ar
    15    31    32   ar
    16    32    33   ar
    17    26    27   ar
    18     1     2    1
    19     2     3    2
    20     3     4    1
    21     3     5    1
    22     5     6   ar
    23     6     7    1
    24     6     8   ar
    25     8     9   ar
    26     9    10   ar
    27    10    11   ar
    28    16    17   ar
    29    17    18   ar
    30    18    19   ar
    31    19    14   ar
    32    11     1    1
    33    27    22   ar
    34    11     5   ar
    35    33    28   ar
    36     4    12    1
    37     4    13    1
@<TRIPOS>MOLECULE
*****
 33 37 0 0 0
SMALL
GASTEIGER

@<TRIPOS>ATOM
      1 C         141.3545  141.9101  163.3645 C.3     1  UNL1        0.2310
      2 N         142.2861  142.7452  162.5371 N.2     1  UNL1       -0.0614
      3 C         141.5521  143.9860  162.1227 C.2     1  UNL1        0.3157
      4 N         142.1060  145.0996  161.2842 N.pl3   1  UNL1       -0.2464
      5 C         140.1668  143.9177  162.6940 C.ar    1  UNL1        0.1094
      6 C         139.0008  144.8580  162.6145 C.ar    1  UNL1        0.1470
      7 F         139.1230  146.1410  161.8470 F       1  UNL1       -0.2039
      8 C         137.7128  144.5153  163.3025 C.ar    1  UNL1        0.0299
      9 C         137.5906  143.2323  164.0700 C.ar    1  UNL1        0.0021
     10 C         138.7566  142.2920  164.1494 C.ar    1  UNL1        0.0008
     11 C         140.0447  142.6347  163.4615 C.ar    1  UNL1        0.0390
     12 H         143.0323  145.0532  160.9539 H       1  UNL1        0.2884
     13 H         141.5433  145.8769  161.0642 H       1  UNL1        0.2884
     14 C         143.8654  138.9669  162.4798 C.ar    1  UNL1        0.2248
     15 C         142.6995  139.9072  162.4004 C.ar    1  UNL1        0.0581
     16 C         142.5205  140.9698  163.4439 C.ar    1  UNL1        0.0359
     17 C         143.5075  141.0921  164.5668 C.ar    1  UNL1        0.0213
     18 C         144.6734  140.1518  164.6462 C.ar    1  UNL1        0.1019
     19 N         144.8524  139.0892  163.6027 N.ar    1  UNL1       -0.2102
     20 C         142.9414  137.6173  160.4613 C.3     1  UNL1        0.2542
     21 O         144.0444  137.9043  161.4364 O.3     1  UNL1       -0.4561
     22 C         140.6666  140.8784  164.2085 C.ar    1  UNL1        0.0297
     23 C         139.8831  139.7775  163.5571 C.ar    1  UNL1        0.0004
     24 C         139.1952  138.7458  164.4011 C.ar    1  UNL1       -0.0002
     25 C         139.2908  138.8149  165.8965 C.ar    1  UNL1        0.0001
     26 C         140.0743  139.9157  166.5479 C.ar    1  UNL1        0.0028
     27 C         140.7622  140.9475  165.7038 C.ar    1  UNL1        0.0005
     28 C         140.1700  139.9849  168.0432 C.ar    1  UNL1        0.0384
     29 C         138.9214  140.0050  168.8744 C.ar    1  UNL1        0.1022
     30 N         139.0170  140.0742  170.3697 N.ar    1  UNL1       -0.2224
     31 C         140.3612  140.1234  171.0339 C.ar    1  UNL1        0.1989
     32 N         141.6096  140.1033  170.2027 N.ar    1  UNL1       -0.2224
     33 C         141.5140  140.0341  168.7073 C.ar    1  UNL1        0.1022
@<TRIPOS>BOND
     1    20    21    1
     2    21    14    1
     3    14    15   ar
     4    15    16   ar
     5    16     1    1
     6     1    22    1
     7    22    23   ar
     8    23    24   ar
     9    24    25   ar
    10    25    26   ar
    11    26    28    1
    12    28    29   ar
    13    29    30   ar
    14    30    31   ar
    15    31    32   ar
    16    32    33   ar
    17    26    27   ar
    18     1     2    1
    19     2     3    2
    20     3     4    1
    21     3     5    1
    22     5     6   ar
    23     6     7    1
    24     6     8   ar
    25     8     9   ar
    26     9    10   ar
    27    10    11   ar
    28    16    17   ar
    29    17    18   ar
    30    18    19   ar
    31    19    14   ar
    32    11     1    1
    33    27    22   ar
    34    11     5   ar
    35    33    28   ar
    36     4    12    1
    37     4    13    1
@<TRIPOS>MOLECULE
*****
 33 37 0 0 0
SMALL
GASTEIGER

@<TRIPOS>ATOM
      1 C         139.4889  139.6072  165.5541 C.3     1  UNL1        0.2310
      2 N         138.4299  138.5707  165.7867 N.2     1  UNL1       -0.0614
      3 C         138.0039  138.6574  167.2223 C.2     1  UNL1        0.3157
      4 N         136.9647  137.8039  167.8867 N.pl3   1  UNL1       -0.2464
      5 C         138.7997  139.7474  167.8770 C.ar    1  UNL1        0.1094
      6 C         138.8072  140.2812  169.2787 C.ar    1  UNL1        0.1470
      7 F         137.8894  139.6942  170.3098 F       1  UNL1       -0.2039
      8 C         139.7325  141.4021  169.6494 C.ar    1  UNL1        0.0299
      9 C         140.6503  141.9892  168.6184 C.ar    1  UNL1        0.0021
     10 C         140.6428  141.4553  167.2166 C.ar    1  UNL1        0.0008
     11 C         139.7175  140.3345  166.8460 C.ar    1  UNL1        0.0390
     12 H         136.4937  137.1104  167.3705 H       1  UNL1        0.2884
     13 H         136.7536  137.9371  168.8390 H       1  UNL1        0.2884
     14 C         140.7056  137.8951  162.1868 C.ar    1  UNL1        0.2248
     15 C         140.7130  138.4290  163.5885 C.ar    1  UNL1        0.0581
     16 C         139.4814  139.0733  164.1523 C.ar    1  UNL1        0.0359
     17 C         138.2422  139.1838  163.3143 C.ar    1  UNL1        0.0213
     18 C         138.2347  138.6499  161.9126 C.ar    1  UNL1        0.1019
     19 N         139.4664  138.0056  161.3488 N.ar    1  UNL1       -0.2102
     20 C         143.2384  137.9970  161.6174 C.3     1  UNL1        0.2542
     21 O         141.9372  137.2508  161.6231 O.3     1  UNL1       -0.4561
     22 C         140.5464  140.5321  165.0284 C.ar    1  UNL1        0.0297
     23 C         141.9817  140.3257  165.4124 C.ar    1  UNL1        0.0004
     24 C         143.0392  141.2506  164.8867 C.ar    1  UNL1       -0.0002
     25 C         142.6614  142.3819  163.9771 C.ar    1  UNL1        0.0001
     26 C         141.2261  142.5883  163.5931 C.ar    1  UNL1        0.0028
     27 C         140.1686  141.6634  164.1188 C.ar    1  UNL1        0.0005
     28 C         140.8483  143.7196  162.6835 C.ar    1  UNL1        0.0384
     29 C         139.5546  144.4497  162.8922 C.ar    1  UNL1        0.1022
     30 N         139.1766  145.5809  161.9827 N.ar    1  UNL1       -0.2224
     31 C         140.0924  145.9821  160.8643 C.ar    1  UNL1        0.1989
     32 N         141.3859  145.2521  160.6556 N.ar    1  UNL1       -0.2224
     33 C         141.7639  144.1208  161.5652 C.ar    1  UNL1        0.1022
@<TRIPOS>BOND
     1    20    21    1
     2    21    14    1
     3    14    15   ar
     4    15    16   ar
     5    16     1    1
     6     1    22    1
     7    22    23   ar
     8    23    24   ar
     9    24    25   ar
    10    25    26   ar
    11    26    28    1
    12    28    29   ar
    13    29    30   ar
    14    30    31   ar
    15    31    32   ar
    16    32    33   ar
    17    26    27   ar
    18     1     2    1
    19     2     3    2
    20     3     4    1
    21     3     5    1
    22     5     6   ar
    23     6     7    1
    24     6     8   ar
    25     8     9   ar
    26     9    10   ar
    27    10    11   ar
    28    16    17   ar
    29    17    18   ar
    30    18    19   ar
    31    19    14   ar
    32    11     1    1
    33    27    22   ar
    34    11     5   ar
    35    33    28   ar
    36     4    12    1
    37     4    13    1
@<TRIPOS>MOLECULE
*****
 33 37 0 0 0
SMALL
GASTEIGER

@<TRIPOS>ATOM
      1 C         141.9326  139.9957  163.5781 C.3     1  UNL1        0.2310
      2 N         141.9062  140.4146  162.1381 N.2     1  UNL1       -0.0614
      3 C         140.7638  139.7079  161.4707 C.2     1  UNL1        0.3157
      4 N         140.3702  139.8345  160.0288 N.pl3   1  UNL1       -0.2464
      5 C         140.0841  138.8523  162.4983 C.ar    1  UNL1        0.1094
      6 C         138.9007  137.9342  162.4162 C.ar    1  UNL1        0.1470
      7 F         138.1784  137.7563  161.1137 F       1  UNL1       -0.2039
      8 C         138.4397  137.1940  163.6367 C.ar    1  UNL1        0.0299
      9 C         139.1621  137.3719  164.9392 C.ar    1  UNL1        0.0021
     10 C         140.3454  138.2900  165.0212 C.ar    1  UNL1        0.0008
     11 C         140.8064  139.0302  163.8008 C.ar    1  UNL1        0.0390
     12 H         140.8811  140.4249  159.4291 H       1  UNL1        0.2884
     13 H         139.6009  139.3273  159.6822 H       1  UNL1        0.2884
     14 C         144.0944  143.3171  163.7900 C.ar    1  UNL1        0.2248
     15 C         142.9111  142.3990  163.7080 C.ar    1  UNL1        0.0581
     16 C         143.1160  140.9138  163.6602 C.ar    1  UNL1        0.0359
     17 C         144.5042  140.3468  163.6944 C.ar    1  UNL1        0.0213
     18 C         145.6875  141.2649  163.7764 C.ar    1  UNL1        0.1019
     19 N         145.4826  142.7501  163.8242 N.ar    1  UNL1       -0.2102
     20 C         142.5002  145.3678  163.8481 C.3     1  UNL1        0.2542
     21 O         143.8895  144.8023  163.8378 O.3     1  UNL1       -0.4561
     22 C         142.2063  139.7688  165.0354 C.ar    1  UNL1        0.0297
     23 C         143.1564  138.6887  165.4608 C.ar    1  UNL1        0.0004
     24 C         143.4301  138.4618  166.9180 C.ar    1  UNL1       -0.0002
     25 C         142.7538  139.3150  167.9499 C.ar    1  UNL1        0.0001
     26 C         141.8038  140.3950  167.5246 C.ar    1  UNL1        0.0028
     27 C         141.5301  140.6220  166.0673 C.ar    1  UNL1        0.0005
     28 C         141.1275  141.2483  168.5564 C.ar    1  UNL1        0.0384
     29 C         140.6901  140.6453  169.8585 C.ar    1  UNL1        0.1022
     30 N         140.0139  141.4984  170.8903 N.ar    1  UNL1       -0.2224
     31 C         139.7750  142.9545  170.6201 C.ar    1  UNL1        0.1989
     32 N         140.2124  143.5573  169.3181 N.ar    1  UNL1       -0.2224
     33 C         140.8887  142.7042  168.2862 C.ar    1  UNL1        0.1022
@<TRIPOS>BOND
     1    20    21    1
     2    21    14    1
     3    14    15   ar
     4    15    16   ar
     5    16     1    1
     6     1    22    1
     7    22    23   ar
     8    23    24   ar
     9    24    25   ar
    10    25    26   ar
    11    26    28    1
    12    28    29   ar
    13    29    30   ar
    14    30    31   ar
    15    31    32   ar
    16    32    33   ar
    17    26    27   ar
    18     1     2    1
    19     2     3    2
    20     3     4    1
    21     3     5    1
    22     5     6   ar
    23     6     7    1
    24     6     8   ar
    25     8     9   ar
    26     9    10   ar
    27    10    11   ar
    28    16    17   ar
    29    17    18   ar
    30    18    19   ar
    31    19    14   ar
    32    11     1    1
    33    27    22   ar
    34    11     5   ar
    35    33    28   ar
    36     4    12    1
    37     4    13    1
@<TRIPOS>MOLECULE
*****
 33 37 0 0 0
SMALL
GASTEIGER

@<TRIPOS>ATOM
      1 C         140.4696  140.4302  166.8962 C.3     1  UNL1        0.2310
      2 N         139.2910  139.9104  167.6648 N.2     1  UNL1       -0.0614
      3 C         139.4634  140.3061  169.1013 C.2     1  UNL1        0.3157
      4 N         138.5168  139.9925  170.2219 N.pl3   1  UNL1       -0.2464
      5 C         140.7485  141.0704  169.2207 C.ar    1  UNL1        0.1094
      6 C         141.4328  141.7064  170.3942 C.ar    1  UNL1        0.1470
      7 F         140.8109  141.6297  171.7570 F       1  UNL1       -0.2039
      8 C         142.7390  142.4192  170.2048 C.ar    1  UNL1        0.0299
      9 C         143.3609  142.4959  168.8420 C.ar    1  UNL1        0.0021
     10 C         142.6766  141.8599  167.6685 C.ar    1  UNL1        0.0008
     11 C         141.3704  141.1471  167.8578 C.ar    1  UNL1        0.0390
     12 H         137.6941  139.4821  170.0431 H       1  UNL1        0.2884
     13 H         138.7182  140.2971  171.1362 H       1  UNL1        0.2884
     14 C         138.1710  139.9672  163.6944 C.ar    1  UNL1        0.2248
     15 C         138.8553  140.6032  164.8679 C.ar    1  UNL1        0.0581
     16 C         139.7852  139.7942  165.7227 C.ar    1  UNL1        0.0359
     17 C         140.0308  138.3492  165.4040 C.ar    1  UNL1        0.0213
     18 C         139.3465  137.7132  164.2305 C.ar    1  UNL1        0.1019
     19 N         138.4166  138.5222  163.3757 N.ar    1  UNL1       -0.2102
     20 C         137.6768  142.1115  162.3131 C.3     1  UNL1        0.2542
     21 O         137.2411  140.7762  162.8395 O.3     1  UNL1       -0.4561
     22 C         141.5051  140.8170  165.8824 C.ar    1  UNL1        0.0297
     23 C         142.8538  140.1605  165.8997 C.ar    1  UNL1        0.0004
     24 C         143.8894  140.5474  164.8858 C.ar    1  UNL1       -0.0002
     25 C         143.5763  141.5907  163.8545 C.ar    1  UNL1        0.0001
     26 C         142.2277  142.2471  163.8371 C.ar    1  UNL1        0.0028
     27 C         141.1921  141.8603  164.8511 C.ar    1  UNL1        0.0005
     28 C         141.9146  143.2904  162.8059 C.ar    1  UNL1        0.0384
     29 C         140.8458  144.3092  163.0703 C.ar    1  UNL1        0.1022
     30 N         140.5326  145.3525  162.0392 N.ar    1  UNL1       -0.2224
     31 C         141.2882  145.3771  160.7435 C.ar    1  UNL1        0.1989
     32 N         142.3569  144.3583  160.4791 N.ar    1  UNL1       -0.2224
     33 C         142.6701  143.3150  161.5103 C.ar    1  UNL1        0.1022
@<TRIPOS>BOND
     1    20    21    1
     2    21    14    1
     3    14    15   ar
     4    15    16   ar
     5    16     1    1
     6     1    22    1
     7    22    23   ar
     8    23    24   ar
     9    24    25   ar
    10    25    26   ar
    11    26    28    1
    12    28    29   ar
    13    29    30   ar
    14    30    31   ar
    15    31    32   ar
    16    32    33   ar
    17    26    27   ar
    18     1     2    1
    19     2     3    2
    20     3     4    1
    21     3     5    1
    22     5     6   ar
    23     6     7    1
    24     6     8   ar
    25     8     9   ar
    26     9    10   ar
    27    10    11   ar
    28    16    17   ar
    29    17    18   ar
    30    18    19   ar
    31    19    14   ar
    32    11     1    1
    33    27    22   ar
    34    11     5   ar
    35    33    28   ar
    36     4    12    1
    37     4    13    1
@<TRIPOS>MOLECULE
*****
 33 37 0 0 0
SMALL
GASTEIGER

@<TRIPOS>ATOM
      1 C         141.6555  140.3334  165.6463 C.3     1  UNL1        0.2310
      2 N         142.2181  141.1939  166.7385 N.2     1  UNL1       -0.0614
      3 C         141.2668  141.1526  167.8975 C.2     1  UNL1        0.3157
      4 N         141.4362  141.8712  169.2032 N.pl3   1  UNL1       -0.2464
      5 C         140.1164  140.2665  167.5217 C.ar    1  UNL1        0.1094
      6 C         138.8811  139.8552  168.2666 C.ar    1  UNL1        0.1470
      7 F         138.6409  140.3615  169.6580 F       1  UNL1       -0.2039
      8 C         137.8861  138.9376  167.6202 C.ar    1  UNL1        0.0299
      9 C         138.1263  138.4313  166.2288 C.ar    1  UNL1        0.0021
     10 C         139.3616  138.8425  165.4839 C.ar    1  UNL1        0.0008
     11 C         140.3566  139.7601  166.1303 C.ar    1  UNL1        0.0390
     12 H         142.2301  142.4329  169.3566 H       1  UNL1        0.2884
     13 H         140.7535  141.7812  169.9068 H       1  UNL1        0.2884
     14 C         144.2065  142.5171  163.5311 C.ar    1  UNL1        0.2248
     15 C         142.9713  142.1057  164.2761 C.ar    1  UNL1        0.0581
     16 C         142.8908  140.7447  164.9013 C.ar    1  UNL1        0.0359
     17 C         144.0456  139.7949  164.7817 C.ar    1  UNL1        0.0213
     18 C         145.2809  140.2062  164.0368 C.ar    1  UNL1        0.1019
     19 N         145.3613  141.5673  163.4115 N.ar    1  UNL1       -0.2102
     20 C         143.5432  145.0290  163.5160 C.3     1  UNL1        0.2542
     21 O         144.2870  143.8781  162.9059 O.3     1  UNL1       -0.4561
     22 C         141.3512  139.5587  164.3983 C.ar    1  UNL1        0.0297
     23 C         141.7613  138.1199  164.2899 C.ar    1  UNL1        0.0004
     24 C         141.4570  137.3453  163.0420 C.ar    1  UNL1       -0.0002
     25 C         140.7426  138.0095  161.9024 C.ar    1  UNL1        0.0001
     26 C         140.3326  139.4482  162.0108 C.ar    1  UNL1        0.0028
     27 C         140.6369  140.2229  163.2588 C.ar    1  UNL1        0.0005
     28 C         139.6183  140.1125  160.8712 C.ar    1  UNL1        0.0384
     29 C         139.4730  141.6053  160.8453 C.ar    1  UNL1        0.1022
     30 N         138.7587  142.2696  159.7059 N.ar    1  UNL1       -0.2224
     31 C         138.1897  141.4412  158.5923 C.ar    1  UNL1        0.1989
     32 N         138.3350  139.9485  158.6182 N.ar    1  UNL1       -0.2224
     33 C         139.0493  139.2841  159.7577 C.ar    1  UNL1        0.1022
@<TRIPOS>BOND
     1    20    21    1
     2    21    14    1
     3    14    15   ar
     4    15    16   ar
     5    16     1    1
     6     1    22    1
     7    22    23   ar
     8    23    24   ar
     9    24    25   ar
    10    25    26   ar
    11    26    28    1
    12    28    29   ar
    13    29    30   ar
    14    30    31   ar
    15    31    32   ar
    16    32    33   ar
    17    26    27   ar
    18     1     2    1
    19     2     3    2
    20     3     4    1
    21     3     5    1
    22     5     6   ar
    23     6     7    1
    24     6     8   ar
    25     8     9   ar
    26     9    10   ar
    27    10    11   ar
    28    16    17   ar
    29    17    18   ar
    30    18    19   ar
    31    19    14   ar
    32    11     1    1
    33    27    22   ar
    34    11     5   ar
    35    33    28   ar
    36     4    12    1
    37     4    13    1
@<TRIPOS>MOLECULE
*****
 33 37 0 0 0
SMALL
GASTEIGER

@<TRIPOS>ATOM
      1 C         141.6021  141.8333  163.4553 C.3     1  UNL1        0.2310
      2 N         142.1362  142.9665  162.6303 N.2     1  UNL1       -0.0614
      3 C         143.6291  142.8328  162.5704 C.2     1  UNL1        0.3157
      4 N         144.5685  143.7532  161.8491 N.pl3   1  UNL1       -0.2464
      5 C         144.0176  141.6170  163.3584 C.ar    1  UNL1        0.1094
      6 C         145.3502  140.9926  163.6485 C.ar    1  UNL1        0.1470
      7 F         146.6029  141.6103  163.1016 F       1  UNL1       -0.2039
      8 C         145.4301  139.7505  164.4856 C.ar    1  UNL1        0.0299
      9 C         144.1774  139.1327  165.0325 C.ar    1  UNL1        0.0021
     10 C         142.8447  139.7571  164.7423 C.ar    1  UNL1        0.0008
     11 C         142.7649  140.9992  163.9053 C.ar    1  UNL1        0.0390
     12 H         144.2159  144.5294  161.3567 H       1  UNL1        0.2884
     13 H         145.5377  143.5812  161.8682 H       1  UNL1        0.2884
     14 C         138.2184  143.8481  163.9459 C.ar    1  UNL1        0.2248
     15 C         139.5510  143.2237  164.2361 C.ar    1  UNL1        0.0581
     16 C         140.2695  142.4577  163.1651 C.ar    1  UNL1        0.0359
     17 C         139.6554  142.3162  161.8039 C.ar    1  UNL1        0.0213
     18 C         138.3228  142.9407  161.5138 C.ar    1  UNL1        0.1019
     19 N         137.6043  143.7066  162.5848 N.ar    1  UNL1       -0.2102
     20 C         138.2769  145.2695  166.1199 C.3     1  UNL1        0.2542
     21 O         137.4999  144.6141  165.0170 O.3     1  UNL1       -0.4561
     22 C         140.7894  140.8306  164.2196 C.ar    1  UNL1        0.0297
     23 C         139.9997  139.7884  163.4846 C.ar    1  UNL1        0.0004
     24 C         139.1870  138.7857  164.2489 C.ar    1  UNL1       -0.0002
     25 C         139.1640  138.8253  165.7483 C.ar    1  UNL1        0.0001
     26 C         139.9536  139.8675  166.4833 C.ar    1  UNL1        0.0028
     27 C         140.7664  140.8702  165.7189 C.ar    1  UNL1        0.0005
     28 C         139.9307  139.9072  167.9826 C.ar    1  UNL1        0.0384
     29 C         138.6224  139.8494  168.7143 C.ar    1  UNL1        0.1022
     30 N         138.5994  139.8891  170.2135 N.ar    1  UNL1       -0.2224
     31 C         139.8845  139.9865  170.9811 C.ar    1  UNL1        0.1989
     32 N         141.1926  140.0442  170.2494 N.ar    1  UNL1       -0.2224
     33 C         141.2157  140.0046  168.7500 C.ar    1  UNL1        0.1022
@<TRIPOS>BOND
     1    20    21    1
     2    21    14    1
     3    14    15   ar
     4    15    16   ar
     5    16     1    1
     6     1    22    1
     7    22    23   ar
     8    23    24   ar
     9    24    25   ar
    10    25    26   ar
    11    26    28    1
    12    28    29   ar
    13    29    30   ar
    14    30    31   ar
    15    31    32   ar
    16    32    33   ar
    17    26    27   ar
    18     1     2    1
    19     2     3    2
    20     3     4    1
    21     3     5    1
    22     5     6   ar
    23     6     7    1
    24     6     8   ar
    25     8     9   ar
    26     9    10   ar
    27    10    11   ar
    28    16    17   ar
    29    17    18   ar
    30    18    19   ar
    31    19    14   ar
    32    11     1    1
    33    27    22   ar
    34    11     5   ar
    35    33    28   ar
    36     4    12    1
    37     4    13    1
@<TRIPOS>MOLECULE
*****
 33 37 0 0 0
SMALL
GASTEIGER

@<TRIPOS>ATOM
      1 C         140.1774  141.5057  163.2382 C.3     1  UNL1        0.2310
      2 N         139.3081  141.2874  162.0354 N.2     1  UNL1       -0.0614
      3 C         139.1876  142.5933  161.3074 C.2     1  UNL1        0.3157
      4 N         138.4090  142.8320  160.0477 N.pl3   1  UNL1       -0.2464
      5 C         139.9824  143.6188  162.0603 C.ar    1  UNL1        0.1094
      6 C         140.2282  145.0777  161.8134 C.ar    1  UNL1        0.1470
      7 F         139.6164  145.7500  160.6201 F       1  UNL1       -0.2039
      8 C         141.0856  145.8645  162.7598 C.ar    1  UNL1        0.0299
      9 C         141.6974  145.1923  163.9531 C.ar    1  UNL1        0.0021
     10 C         141.4516  143.7333  164.2000 C.ar    1  UNL1        0.0008
     11 C         140.5942  142.9466  163.2536 C.ar    1  UNL1        0.0390
     12 H         137.9166  142.0913  159.6256 H       1  UNL1        0.2884
     13 H         138.3904  143.7293  159.6431 H       1  UNL1        0.2884
     14 C         138.8468  138.1552  164.8976 C.ar    1  UNL1        0.2248
     15 C         139.0926  139.6142  164.6507 C.ar    1  UNL1        0.0581
     16 C         139.9317  140.0467  163.4850 C.ar    1  UNL1        0.0359
     17 C         140.5249  139.0202  162.5661 C.ar    1  UNL1        0.0213
     18 C         140.2791  137.5612  162.8130 C.ar    1  UNL1        0.1019
     19 N         139.4401  137.1288  163.9788 N.ar    1  UNL1       -0.2102
     20 C         137.6944  138.6935  167.1630 C.3     1  UNL1        0.2542
     21 O         138.0078  137.7227  166.0634 O.3     1  UNL1       -0.4561
     22 C         140.9953  141.4190  164.4925 C.ar    1  UNL1        0.0297
     23 C         142.4264  140.9742  164.4256 C.ar    1  UNL1        0.0004
     24 C         143.2443  140.8875  165.6800 C.ar    1  UNL1       -0.0002
     25 C         142.6312  141.2456  167.0013 C.ar    1  UNL1        0.0001
     26 C         141.2002  141.6903  167.0683 C.ar    1  UNL1        0.0028
     27 C         140.3823  141.7770  165.8139 C.ar    1  UNL1        0.0005
     28 C         140.5871  142.0483  168.3896 C.ar    1  UNL1        0.0384
     29 C         139.8646  141.0044  169.1886 C.ar    1  UNL1        0.1022
     30 N         139.2515  141.3623  170.5099 N.ar    1  UNL1       -0.2224
     31 C         139.3607  142.7642  171.0322 C.ar    1  UNL1        0.1989
     32 N         140.0832  143.8081  170.2333 N.ar    1  UNL1       -0.2224
     33 C         140.6964  143.4502  168.9119 C.ar    1  UNL1        0.1022
@<TRIPOS>BOND
     1    20    21    1
     2    21    14    1
     3    14    15   ar
     4    15    16   ar
     5    16     1    1
     6     1    22    1
     7    22    23   ar
     8    23    24   ar
     9    24    25   ar
    10    25    26   ar
    11    26    28    1
    12    28    29   ar
    13    29    30   ar
    14    30    31   ar
    15    31    32   ar
    16    32    33   ar
    17    26    27   ar
    18     1     2    1
    19     2     3    2
    20     3     4    1
    21     3     5    1
    22     5     6   ar
    23     6     7    1
    24     6     8   ar
    25     8     9   ar
    26     9    10   ar
    27    10    11   ar
    28    16    17   ar
    29    17    18   ar
    30    18    19   ar
    31    19    14   ar
    32    11     1    1
    33    27    22   ar
    34    11     5   ar
    35    33    28   ar
    36     4    12    1
    37     4    13    1
@<TRIPOS>MOLECULE
*****
 33 37 0 0 0
SMALL
GASTEIGER

@<TRIPOS>ATOM
      1 C         142.3376  141.1138  166.5825 C.3     1  UNL1        0.2310
      2 N         143.3223  141.9293  167.3668 N.2     1  UNL1       -0.0614
      3 C         142.7708  142.1187  168.7488 C.2     1  UNL1        0.3157
      4 N         143.4292  142.8740  169.8650 N.pl3   1  UNL1       -0.2464
      5 C         141.4451  141.4202  168.8186 C.ar    1  UNL1        0.1094
      6 C         140.4473  141.2695  169.9283 C.ar    1  UNL1        0.1470
      7 F         140.7150  141.8907  171.2671 F       1  UNL1       -0.2039
      8 C         139.1817  140.4977  169.6991 C.ar    1  UNL1        0.0299
      9 C         138.9140  139.8766  168.3603 C.ar    1  UNL1        0.0021
     10 C         139.9118  140.0273  167.2506 C.ar    1  UNL1        0.0008
     11 C         141.1774  140.7991  167.4797 C.ar    1  UNL1        0.0390
     12 H         144.3047  143.3007  169.7213 H       1  UNL1        0.2884
     13 H         142.9858  142.9431  170.7413 H       1  UNL1        0.2884
     14 C         144.4514  142.7201  163.6326 C.ar    1  UNL1        0.2248
     15 C         143.4535  142.5693  164.7423 C.ar    1  UNL1        0.0581
     16 C         143.3356  141.2645  165.4727 C.ar    1  UNL1        0.0359
     17 C         144.2155  140.1105  165.0935 C.ar    1  UNL1        0.0213
     18 C         145.2134  140.2612  163.9838 C.ar    1  UNL1        0.1019
     19 N         145.3313  141.5660  163.2534 N.ar    1  UNL1       -0.2102
     20 C         143.6716  145.1707  163.2639 C.3     1  UNL1        0.2542
     21 O         144.5694  144.0249  162.9022 O.3     1  UNL1       -0.4561
     22 C         141.5615  140.3297  165.5662 C.ar    1  UNL1        0.0297
     23 C         141.4428  138.8403  165.6989 C.ar    1  UNL1        0.0004
     24 C         140.6667  138.0562  164.6826 C.ar    1  UNL1       -0.0002
     25 C         140.0093  138.7615  163.5335 C.ar    1  UNL1        0.0001
     26 C         140.1279  140.2509  163.4008 C.ar    1  UNL1        0.0028
     27 C         140.9041  141.0351  164.4171 C.ar    1  UNL1        0.0005
     28 C         139.4705  140.9564  162.2517 C.ar    1  UNL1        0.0384
     29 C         139.8102  140.5716  160.8422 C.ar    1  UNL1        0.1022
     30 N         139.1529  141.2769  159.6932 N.ar    1  UNL1       -0.2224
     31 C         138.1559  142.3670  159.9536 C.ar    1  UNL1        0.1989
     32 N         137.8163  142.7518  161.3631 N.ar    1  UNL1       -0.2224
     33 C         138.4737  142.0464  162.5122 C.ar    1  UNL1        0.1022
@<TRIPOS>BOND
     1    20    21    1
     2    21    14    1
     3    14    15   ar
     4    15    16   ar
     5    16     1    1
     6     1    22    1
     7    22    23   ar
     8    23    24   ar
     9    24    25   ar
    10    25    26   ar
    11    26    28    1
    12    28    29   ar
    13    29    30   ar
    14    30    31   ar
    15    31    32   ar
    16    32    33   ar
    17    26    27   ar
    18     1     2    1
    19     2     3    2
    20     3     4    1
    21     3     5    1
    22     5     6   ar
    23     6     7    1
    24     6     8   ar
    25     8     9   ar
    26     9    10   ar
    27    10    11   ar
    28    16    17   ar
    29    17    18   ar
    30    18    19   ar
    31    19    14   ar
    32    11     1    1
    33    27    22   ar
    34    11     5   ar
    35    33    28   ar
    36     4    12    1
    37     4    13    1
