@<TRIPOS>MOLECULE
*****
 35 40 0 0 0
SMALL
GASTEIGER

@<TRIPOS>ATOM
      1 C         138.3467  140.1007  164.8284 C.ar    1  UNL1       -0.0065
      2 C         138.1323  141.5809  164.7140 C.ar    1  UNL1       -0.0032
      3 C         138.1332  142.2368  163.3651 C.ar    1  UNL1       -0.0026
      4 C         138.3486  141.4125  162.1305 C.ar    1  UNL1        0.0019
      5 C         138.5630  139.9324  162.2448 C.ar    1  UNL1       -0.0200
      6 C         138.5620  139.2765  163.5938 C.ar    1  UNL1       -0.0071
      7 C         138.7480  139.3826  160.8615 C.3     1  UNL1        0.0519
      8 C         138.6479  140.5230  159.8922 C.2     1  UNL1        0.0074
      9 C         138.7005  140.8880  158.4383 C.2     1  UNL1        0.0976
     10 N         138.4860  142.3682  158.3239 N.2     1  UNL1       -0.1526
     11 N         138.3010  142.9179  159.7072 N.2     1  UNL1       -0.1678
     12 C         138.4011  141.7776  160.6765 C.3     1  UNL1        0.1672
     13 C         138.9275  139.9394  157.2987 C.ar    1  UNL1        0.0265
     14 C         138.4229  140.1091  155.8963 C.ar    1  UNL1        0.0376
     15 S         138.8826  138.9291  155.0924 S.2     1  UNL1       -0.0780
     16 C         139.6713  138.0301  155.9979 C.ar    1  UNL1        0.0711
     17 C         139.6990  138.6545  157.3615 C.ar    1  UNL1        0.0168
     18 C         140.3185  136.7343  155.6083 C.1     1  UNL1       -0.0543
     19 C         140.9659  135.4384  155.2187 C.1     1  UNL1       -0.0388
     20 C         141.6132  134.1426  154.8290 C.3     1  UNL1        0.2815
     21 O         141.4772  132.9401  155.7152 O.3     1  UNL1       -0.4596
     22 C         142.6692  132.4214  156.4638 C.ar    1  UNL1        0.1591
     23 C         143.6037  133.3789  157.1420 C.ar    1  UNL1        0.0402
     24 C         144.7956  132.8604  157.8906 C.ar    1  UNL1        0.0238
     25 C         145.0530  131.3843  157.9609 C.ar    1  UNL1        0.0991
     26 N         144.1185  130.4269  157.2827 N.ar    1  UNL1       -0.2391
     27 C         142.9266  130.9454  156.5342 C.ar    1  UNL1        0.1357
     28 C         138.3457  139.4447  166.1774 C.3     1  UNL1        0.0992
     29 C         142.8772  140.4151  169.9884 C.3     1  UNL1        0.0897
     30 N         141.7443  140.1725  169.0356 N.3     1  UNL1       -0.2691
     31 C         140.3289  140.1992  169.5312 C.3     1  UNL1        0.0897
     32 C         139.1959  139.9566  168.5784 C.3     1  UNL1        0.0899
     33 N         139.4786  139.6873  167.1301 N.3     1  UNL1       -0.2665
     34 C         140.8941  139.6607  166.6346 C.3     1  UNL1        0.0899
     35 C         142.0270  139.9033  167.5873 C.3     1  UNL1        0.0897
@<TRIPOS>BOND
     1    29    30    1
     2    30    31    1
     3    31    32    1
     4    32    33    1
     5    33    28    1
     6    28     1    1
     7     1     2   ar
     8     2     3   ar
     9     3     4   ar
    10     4     5   ar
    11     5     6   ar
    12     5     7    1
    13     7     8    1
    14     8     9    2
    15     9    13    1
    16    13    14   ar
    17    14    15   ar
    18    15    16   ar
    19    16    18    1
    20    18    19    3
    21    19    20    1
    22    20    21    1
    23    21    22    1
    24    22    23   ar
    25    23    24   ar
    26    24    25   ar
    27    25    26   ar
    28    26    27   ar
    29    16    17   ar
    30     9    10    1
    31    10    11    2
    32    11    12    1
    33    33    34    1
    34    34    35    1
    35    35    30    1
    36     6     1   ar
    37    12     8    1
    38    12     4    1
    39    17    13   ar
    40    27    22   ar
@<TRIPOS>MOLECULE
*****
 35 40 0 0 0
SMALL
GASTEIGER

@<TRIPOS>ATOM
      1 C         142.0423  137.3420  156.4489 C.ar    1  UNL1       -0.0065
      2 C         140.6583  137.6206  155.9422 C.ar    1  UNL1       -0.0032
      3 C         139.6280  138.2091  156.8598 C.ar    1  UNL1       -0.0026
      4 C         139.9817  138.5190  158.2842 C.ar    1  UNL1        0.0019
      5 C         141.3657  138.2404  158.7909 C.ar    1  UNL1       -0.0200
      6 C         142.3960  137.6519  157.8733 C.ar    1  UNL1       -0.0071
      7 C         141.4218  138.6476  160.2335 C.3     1  UNL1        0.0519
      8 C         140.0724  139.1779  160.6183 C.2     1  UNL1        0.0074
      9 C         139.2732  139.7573  161.7477 C.2     1  UNL1        0.0976
     10 N         137.8892  140.0358  161.2409 N.2     1  UNL1       -0.1526
     11 N         137.8331  139.6286  159.7984 N.2     1  UNL1       -0.1678
     12 C         139.1823  139.0984  159.4136 C.3     1  UNL1        0.1672
     13 C         139.7707  140.0132  163.1395 C.ar    1  UNL1        0.0265
     14 C         141.1365  140.5104  163.5101 C.ar    1  UNL1        0.0376
     15 S         141.1996  140.6213  165.0047 S.2     1  UNL1       -0.0780
     16 C         139.8728  140.1926  165.5577 C.ar    1  UNL1        0.0711
     17 C         138.9897  139.8168  164.4050 C.ar    1  UNL1        0.0168
     18 C         139.4954  140.1477  167.0087 C.1     1  UNL1       -0.0543
     19 C         139.1179  140.1027  168.4598 C.1     1  UNL1       -0.0388
     20 C         138.7405  140.0577  169.9108 C.3     1  UNL1        0.2815
     21 O         139.7895  140.2531  170.9651 O.3     1  UNL1       -0.4596
     22 C         141.0843  140.9267  170.6189 C.ar    1  UNL1        0.1591
     23 C         141.1358  142.4177  170.4630 C.ar    1  UNL1        0.0402
     24 C         142.4306  143.0913  170.1169 C.ar    1  UNL1        0.0238
     25 C         143.6738  142.2739  169.9267 C.ar    1  UNL1        0.0991
     26 N         143.6223  140.7829  170.0827 N.ar    1  UNL1       -0.2391
     27 C         142.3275  140.1093  170.4288 C.ar    1  UNL1        0.1357
     28 C         143.0727  136.7535  155.5313 C.3     1  UNL1        0.0992
     29 C         143.4333  130.8035  154.8480 C.3     1  UNL1        0.0897
     30 N         143.3431  132.2910  155.0188 N.3     1  UNL1       -0.2691
     31 C         143.9534  132.9460  156.2223 C.3     1  UNL1        0.0897
     32 C         143.8633  134.4336  156.3932 C.3     1  UNL1        0.0899
     33 N         143.1629  135.2660  155.3605 N.3     1  UNL1       -0.2665
     34 C         142.5526  134.6109  154.1569 C.3     1  UNL1        0.0899
     35 C         142.6427  133.1235  153.9861 C.3     1  UNL1        0.0897
@<TRIPOS>BOND
     1    29    30    1
     2    30    31    1
     3    31    32    1
     4    32    33    1
     5    33    28    1
     6    28     1    1
     7     1     2   ar
     8     2     3   ar
     9     3     4   ar
    10     4     5   ar
    11     5     6   ar
    12     5     7    1
    13     7     8    1
    14     8     9    2
    15     9    13    1
    16    13    14   ar
    17    14    15   ar
    18    15    16   ar
    19    16    18    1
    20    18    19    3
    21    19    20    1
    22    20    21    1
    23    21    22    1
    24    22    23   ar
    25    23    24   ar
    26    24    25   ar
    27    25    26   ar
    28    26    27   ar
    29    16    17   ar
    30     9    10    1
    31    10    11    2
    32    11    12    1
    33    33    34    1
    34    34    35    1
    35    35    30    1
    36     6     1   ar
    37    12     8    1
    38    12     4    1
    39    17    13   ar
    40    27    22   ar
@<TRIPOS>MOLECULE
*****
 35 40 0 0 0
SMALL
GASTEIGER

@<TRIPOS>ATOM
      1 C         143.7359  139.1409  164.7018 C.ar    1  UNL1       -0.0065
      2 C         144.3905  140.4349  164.3185 C.ar    1  UNL1       -0.0032
      3 C         144.4464  140.8493  162.8780 C.ar    1  UNL1       -0.0026
      4 C         143.8478  139.9697  161.8208 C.ar    1  UNL1        0.0019
      5 C         143.1932  138.6756  162.2040 C.ar    1  UNL1       -0.0200
      6 C         143.1373  138.2612  163.6445 C.ar    1  UNL1       -0.0071
      7 C         142.6930  138.0203  160.9509 C.3     1  UNL1        0.0519
      8 C         143.0384  138.9094  159.7932 C.2     1  UNL1        0.0074
      9 C         142.9426  139.0538  158.3032 C.2     1  UNL1        0.0976
     10 N         143.5972  140.3479  157.9200 N.2     1  UNL1       -0.1526
     11 N         144.0974  141.0032  159.1731 N.2     1  UNL1       -0.1678
     12 C         143.7521  140.1142  160.3307 C.3     1  UNL1        0.1672
     13 C         142.3044  138.0758  157.3618 C.ar    1  UNL1        0.0265
     14 C         140.9597  138.2248  156.7138 C.ar    1  UNL1        0.0376
     15 S         140.7231  137.0182  155.8546 S.2     1  UNL1       -0.0780
     16 C         141.9214  136.1236  155.9715 C.ar    1  UNL1        0.0711
     17 C         142.8987  136.7773  156.9030 C.ar    1  UNL1        0.0168
     18 C         142.1095  134.8066  155.2787 C.1     1  UNL1       -0.0543
     19 C         142.2975  133.4896  154.5858 C.1     1  UNL1       -0.0388
     20 C         142.4856  132.1726  153.8929 C.3     1  UNL1        0.2815
     21 O         143.7246  131.3644  154.1416 O.3     1  UNL1       -0.4596
     22 C         144.0995  130.9781  155.5416 C.ar    1  UNL1        0.1591
     23 C         144.8412  131.9471  156.4139 C.ar    1  UNL1        0.0402
     24 C         145.2162  131.5608  157.8140 C.ar    1  UNL1        0.0238
     25 C         144.8495  130.2054  158.3417 C.ar    1  UNL1        0.0991
     26 N         144.1078  129.2364  157.4694 N.ar    1  UNL1       -0.2391
     27 C         143.7329  129.6227  156.0694 C.ar    1  UNL1        0.1357
     28 C         143.6800  138.7264  166.1423 C.3     1  UNL1        0.0992
     29 C         139.1965  140.6373  169.6418 C.3     1  UNL1        0.0897
     30 N         140.3174  140.1596  168.7670 N.3     1  UNL1       -0.2691
     31 C         141.6459  139.8143  169.3717 C.3     1  UNL1        0.0897
     32 C         142.7668  139.3365  168.4968 C.3     1  UNL1        0.0899
     33 N         142.5591  139.2041  167.0172 N.3     1  UNL1       -0.2665
     34 C         141.2305  139.5494  166.4124 C.3     1  UNL1        0.0899
     35 C         140.1097  140.0271  167.2873 C.3     1  UNL1        0.0897
@<TRIPOS>BOND
     1    29    30    1
     2    30    31    1
     3    31    32    1
     4    32    33    1
     5    33    28    1
     6    28     1    1
     7     1     2   ar
     8     2     3   ar
     9     3     4   ar
    10     4     5   ar
    11     5     6   ar
    12     5     7    1
    13     7     8    1
    14     8     9    2
    15     9    13    1
    16    13    14   ar
    17    14    15   ar
    18    15    16   ar
    19    16    18    1
    20    18    19    3
    21    19    20    1
    22    20    21    1
    23    21    22    1
    24    22    23   ar
    25    23    24   ar
    26    24    25   ar
    27    25    26   ar
    28    26    27   ar
    29    16    17   ar
    30     9    10    1
    31    10    11    2
    32    11    12    1
    33    33    34    1
    34    34    35    1
    35    35    30    1
    36     6     1   ar
    37    12     8    1
    38    12     4    1
    39    17    13   ar
    40    27    22   ar
@<TRIPOS>MOLECULE
*****
 35 40 0 0 0
SMALL
GASTEIGER

@<TRIPOS>ATOM
      1 C         139.9155  146.3954  155.9405 C.ar    1  UNL1       -0.0065
      2 C         141.1032  145.7974  155.2466 C.ar    1  UNL1       -0.0032
      3 C         142.0834  144.9660  156.0197 C.ar    1  UNL1       -0.0026
      4 C         141.8759  144.7326  157.4869 C.ar    1  UNL1        0.0019
      5 C         140.6881  145.3306  158.1808 C.ar    1  UNL1       -0.0200
      6 C         139.7079  146.1620  157.4076 C.ar    1  UNL1       -0.0071
      7 C         140.7454  144.9307  159.6254 C.3     1  UNL1        0.0519
      8 C         141.9686  144.0855  159.8242 C.2     1  UNL1        0.0074
      9 C         142.7599  143.3160  160.8399 C.2     1  UNL1        0.0976
     10 N         143.9476  142.7179  160.1460 N.2     1  UNL1       -0.1526
     11 N         143.8904  143.1179  158.7014 N.2     1  UNL1       -0.1678
     12 C         142.6673  143.9630  158.5026 C.3     1  UNL1        0.1672
     13 C         142.4226  143.1701  162.2942 C.ar    1  UNL1        0.0265
     14 C         142.8513  144.0938  163.3957 C.ar    1  UNL1        0.0376
     15 S         142.2911  143.5695  164.6846 S.2     1  UNL1       -0.0780
     16 C         141.5162  142.3218  164.3797 C.ar    1  UNL1        0.0711
     17 C         141.5975  142.0750  162.9024 C.ar    1  UNL1        0.0168
     18 C         140.7879  141.4704  165.3771 C.1     1  UNL1       -0.0543
     19 C         140.0596  140.6191  166.3745 C.1     1  UNL1       -0.0388
     20 C         139.3313  139.7677  167.3719 C.3     1  UNL1        0.2815
     21 O         139.6688  139.8659  168.8301 O.3     1  UNL1       -0.4596
     22 C         140.7108  140.8397  169.2949 C.ar    1  UNL1        0.1591
     23 C         142.1642  140.4765  169.2178 C.ar    1  UNL1        0.0402
     24 C         143.2062  141.4502  169.6825 C.ar    1  UNL1        0.0238
     25 C         142.7949  142.7871  170.2243 C.ar    1  UNL1        0.0991
     26 N         141.3416  143.1502  170.3013 N.ar    1  UNL1       -0.2391
     27 C         140.2996  142.1766  169.8366 C.ar    1  UNL1        0.1357
     28 C         138.9352  147.2269  155.1673 C.3     1  UNL1        0.0992
     29 C         140.2000  152.9540  153.9023 C.3     1  UNL1        0.0897
     30 N         139.8838  151.5223  154.2185 N.3     1  UNL1       -0.2691
     31 C         140.4755  150.4224  153.3879 C.3     1  UNL1        0.0897
     32 C         140.1593  148.9905  153.7041 C.3     1  UNL1        0.0899
     33 N         139.2514  148.6587  154.8510 N.3     1  UNL1       -0.2665
     34 C         138.6596  149.7586  155.6817 C.3     1  UNL1        0.0899
     35 C         138.9758  151.1904  155.3655 C.3     1  UNL1        0.0897
@<TRIPOS>BOND
     1    29    30    1
     2    30    31    1
     3    31    32    1
     4    32    33    1
     5    33    28    1
     6    28     1    1
     7     1     2   ar
     8     2     3   ar
     9     3     4   ar
    10     4     5   ar
    11     5     6   ar
    12     5     7    1
    13     7     8    1
    14     8     9    2
    15     9    13    1
    16    13    14   ar
    17    14    15   ar
    18    15    16   ar
    19    16    18    1
    20    18    19    3
    21    19    20    1
    22    20    21    1
    23    21    22    1
    24    22    23   ar
    25    23    24   ar
    26    24    25   ar
    27    25    26   ar
    28    26    27   ar
    29    16    17   ar
    30     9    10    1
    31    10    11    2
    32    11    12    1
    33    33    34    1
    34    34    35    1
    35    35    30    1
    36     6     1   ar
    37    12     8    1
    38    12     4    1
    39    17    13   ar
    40    27    22   ar
@<TRIPOS>MOLECULE
*****
 35 40 0 0 0
SMALL
GASTEIGER

@<TRIPOS>ATOM
      1 C         140.1781  137.0159  155.2663 C.ar    1  UNL1       -0.0065
      2 C         139.9044  138.1128  154.2804 C.ar    1  UNL1       -0.0032
      3 C         139.4704  139.4647  154.7641 C.ar    1  UNL1       -0.0026
      4 C         139.3102  139.7198  156.2335 C.ar    1  UNL1        0.0019
      5 C         139.5839  138.6229  157.2193 C.ar    1  UNL1       -0.0200
      6 C         140.0178  137.2710  156.7357 C.ar    1  UNL1       -0.0071
      7 C         139.3422  139.1664  158.5964 C.3     1  UNL1        0.0519
      8 C         138.9191  140.5992  158.4616 C.2     1  UNL1        0.0074
      9 C         138.5083  141.8205  159.2294 C.2     1  UNL1        0.0976
     10 N         138.2346  142.9174  158.2435 N.2     1  UNL1       -0.1526
     11 N         138.4763  142.3739  156.8665 N.2     1  UNL1       -0.1678
     12 C         138.8993  140.9412  157.0013 C.3     1  UNL1        0.1672
     13 C         138.3916  141.9264  160.7211 C.ar    1  UNL1        0.0265
     14 C         138.2555  143.1969  161.5069 C.ar    1  UNL1        0.0376
     15 S         138.1704  142.8360  162.9603 S.2     1  UNL1       -0.0780
     16 C         138.2538  141.3426  163.0728 C.ar    1  UNL1        0.0711
     17 C         138.3906  140.7804  161.6889 C.ar    1  UNL1        0.0168
     18 C         138.2085  140.5504  164.3457 C.1     1  UNL1       -0.0543
     19 C         138.1632  139.7582  165.6187 C.1     1  UNL1       -0.0388
     20 C         138.1179  138.9660  166.8916 C.3     1  UNL1        0.2815
     21 O         139.2504  139.0552  167.8712 O.3     1  UNL1       -0.4596
     22 C         139.5216  140.3443  168.5887 C.ar    1  UNL1        0.1591
     23 C         140.3392  141.4135  167.9266 C.ar    1  UNL1        0.0402
     24 C         140.6105  142.7025  168.6440 C.ar    1  UNL1        0.0238
     25 C         140.0642  142.9223  170.0236 C.ar    1  UNL1        0.0991
     26 N         139.2467  141.8531  170.6857 N.ar    1  UNL1       -0.2391
     27 C         138.9754  140.5641  169.9683 C.ar    1  UNL1        0.1357
     28 C         140.6120  135.6639  154.7827 C.3     1  UNL1        0.0992
     29 C         144.7350  132.5631  157.8462 C.3     1  UNL1        0.0897
     30 N         143.7043  133.3383  157.0803 N.3     1  UNL1       -0.2691
     31 C         142.6178  132.6148  156.3414 C.3     1  UNL1        0.0897
     32 C         141.5870  133.3900  155.5755 C.3     1  UNL1        0.0899
     33 N         141.6428  134.8887  155.5485 N.3     1  UNL1       -0.2665
     34 C         142.7293  135.6122  156.2875 C.3     1  UNL1        0.0899
     35 C         143.7601  134.8370  157.0533 C.3     1  UNL1        0.0897
@<TRIPOS>BOND
     1    29    30    1
     2    30    31    1
     3    31    32    1
     4    32    33    1
     5    33    28    1
     6    28     1    1
     7     1     2   ar
     8     2     3   ar
     9     3     4   ar
    10     4     5   ar
    11     5     6   ar
    12     5     7    1
    13     7     8    1
    14     8     9    2
    15     9    13    1
    16    13    14   ar
    17    14    15   ar
    18    15    16   ar
    19    16    18    1
    20    18    19    3
    21    19    20    1
    22    20    21    1
    23    21    22    1
    24    22    23   ar
    25    23    24   ar
    26    24    25   ar
    27    25    26   ar
    28    26    27   ar
    29    16    17   ar
    30     9    10    1
    31    10    11    2
    32    11    12    1
    33    33    34    1
    34    34    35    1
    35    35    30    1
    36     6     1   ar
    37    12     8    1
    38    12     4    1
    39    17    13   ar
    40    27    22   ar
@<TRIPOS>MOLECULE
*****
 35 40 0 0 0
SMALL
GASTEIGER

@<TRIPOS>ATOM
      1 C         142.6679  138.2969  156.2353 C.ar    1  UNL1       -0.0065
      2 C         143.8378  139.1387  155.8196 C.ar    1  UNL1       -0.0032
      3 C         144.3170  140.2479  156.7082 C.ar    1  UNL1       -0.0026
      4 C         143.6264  140.5155  158.0127 C.ar    1  UNL1        0.0019
      5 C         142.4566  139.6737  158.4284 C.ar    1  UNL1       -0.0200
      6 C         141.9773  138.5645  157.5397 C.ar    1  UNL1       -0.0071
      7 C         141.9791  140.1696  159.7611 C.3     1  UNL1        0.0519
      8 C         142.8538  141.3179  160.1690 C.2     1  UNL1        0.0074
      9 C         143.0993  142.3340  161.2448 C.2     1  UNL1        0.0976
     10 N         144.2691  143.1757  160.8290 N.2     1  UNL1       -0.1526
     11 N         144.7466  142.6798  159.4963 N.2     1  UNL1       -0.1678
     12 C         143.8720  141.5317  159.0884 C.3     1  UNL1        0.1672
     13 C         142.3129  142.4823  162.5135 C.ar    1  UNL1        0.0265
     14 C         141.8590  143.7754  163.1234 C.ar    1  UNL1        0.0376
     15 S         141.1080  143.4558  164.3819 S.2     1  UNL1       -0.0780
     16 C         141.0978  141.9653  164.5498 C.ar    1  UNL1        0.0711
     17 C         141.8424  141.3636  163.3951 C.ar    1  UNL1        0.0168
     18 C         140.4556  141.2091  165.6749 C.1     1  UNL1       -0.0543
     19 C         139.8134  140.4529  166.8000 C.1     1  UNL1       -0.0388
     20 C         139.1712  139.6968  167.9250 C.3     1  UNL1        0.2815
     21 O         139.4027  140.1239  169.3442 O.3     1  UNL1       -0.4596
     22 C         140.5004  141.0944  169.6658 C.ar    1  UNL1        0.1591
     23 C         141.9313  140.6455  169.6350 C.ar    1  UNL1        0.0402
     24 C         143.0289  141.6159  169.9565 C.ar    1  UNL1        0.0238
     25 C         142.6956  143.0353  170.3088 C.ar    1  UNL1        0.0991
     26 N         141.2647  143.4843  170.3396 N.ar    1  UNL1       -0.2391
     27 C         140.1671  142.5138  170.0181 C.ar    1  UNL1        0.1357
     28 C         142.1886  137.1876  155.3466 C.3     1  UNL1        0.0992
     29 C         143.0214  131.4715  156.9690 C.3     1  UNL1        0.0897
     30 N         142.8132  132.9005  156.5634 N.3     1  UNL1       -0.2691
     31 C         141.6602  133.2682  155.6772 C.3     1  UNL1        0.0897
     32 C         141.4520  134.6973  155.2716 C.3     1  UNL1        0.0899
     33 N         142.3968  135.7586  155.7522 N.3     1  UNL1       -0.2665
     34 C         143.5498  135.3908  156.6384 C.3     1  UNL1        0.0899
     35 C         143.7580  133.9618  157.0440 C.3     1  UNL1        0.0897
@<TRIPOS>BOND
     1    29    30    1
     2    30    31    1
     3    31    32    1
     4    32    33    1
     5    33    28    1
     6    28     1    1
     7     1     2   ar
     8     2     3   ar
     9     3     4   ar
    10     4     5   ar
    11     5     6   ar
    12     5     7    1
    13     7     8    1
    14     8     9    2
    15     9    13    1
    16    13    14   ar
    17    14    15   ar
    18    15    16   ar
    19    16    18    1
    20    18    19    3
    21    19    20    1
    22    20    21    1
    23    21    22    1
    24    22    23   ar
    25    23    24   ar
    26    24    25   ar
    27    25    26   ar
    28    26    27   ar
    29    16    17   ar
    30     9    10    1
    31    10    11    2
    32    11    12    1
    33    33    34    1
    34    34    35    1
    35    35    30    1
    36     6     1   ar
    37    12     8    1
    38    12     4    1
    39    17    13   ar
    40    27    22   ar
@<TRIPOS>MOLECULE
*****
 35 40 0 0 0
SMALL
GASTEIGER

@<TRIPOS>ATOM
      1 C         143.2465  131.5029  155.8368 C.ar    1  UNL1       -0.0065
      2 C         142.0693  131.7428  154.9388 C.ar    1  UNL1       -0.0032
      3 C         141.4316  133.0994  154.8845 C.ar    1  UNL1       -0.0026
      4 C         141.9712  134.2161  155.7282 C.ar    1  UNL1        0.0019
      5 C         143.1485  133.9762  156.6262 C.ar    1  UNL1       -0.0200
      6 C         143.7861  132.6196  156.6805 C.ar    1  UNL1       -0.0071
      7 C         143.4584  135.2601  157.3371 C.3     1  UNL1        0.0519
      8 C         142.4727  136.2936  156.8785 C.2     1  UNL1        0.0074
      9 C         142.0550  137.7258  157.0345 C.2     1  UNL1        0.0976
     10 N         140.8778  137.9657  156.1364 N.2     1  UNL1       -0.1526
     11 N         140.5679  136.6818  155.4255 N.2     1  UNL1       -0.1678
     12 C         141.5535  135.6484  155.8841 C.3     1  UNL1        0.1672
     13 C         142.7012  138.7400  157.9310 C.ar    1  UNL1        0.0265
     14 C         143.1766  140.1027  157.5220 C.ar    1  UNL1        0.0376
     15 S         143.7546  140.7745  158.7322 S.2     1  UNL1       -0.0780
     16 C         143.6365  139.8270  159.8892 C.ar    1  UNL1        0.0711
     17 C         142.9854  138.5697  159.3940 C.ar    1  UNL1        0.0168
     18 C         144.0898  140.0906  161.2945 C.1     1  UNL1       -0.0543
     19 C         144.5431  140.3542  162.6999 C.1     1  UNL1       -0.0388
     20 C         144.9964  140.6178  164.1052 C.3     1  UNL1        0.2815
     21 O         144.0944  141.3409  165.0610 O.3     1  UNL1       -0.4596
     22 C         143.4192  142.6122  164.6392 C.ar    1  UNL1        0.1591
     23 C         144.2375  143.8350  164.3476 C.ar    1  UNL1        0.0402
     24 C         143.5624  145.1063  163.9258 C.ar    1  UNL1        0.0238
     25 C         142.0689  145.1547  163.7954 C.ar    1  UNL1        0.0991
     26 N         141.2505  143.9319  164.0869 N.ar    1  UNL1       -0.2391
     27 C         141.9257  142.6606  164.5088 C.ar    1  UNL1        0.1357
     28 C         143.8843  130.1463  155.8911 C.3     1  UNL1        0.0992
     29 C         142.7958  126.5034  160.5327 C.3     1  UNL1        0.0897
     30 N         143.0679  127.4141  159.3723 N.3     1  UNL1       -0.2691
     31 C         144.0802  128.5133  159.5029 C.3     1  UNL1        0.0897
     32 C         144.3523  129.4240  158.3425 C.3     1  UNL1        0.0899
     33 N         143.6121  129.2356  157.0515 N.3     1  UNL1       -0.2665
     34 C         142.5998  128.1363  156.9210 C.3     1  UNL1        0.0899
     35 C         142.3277  127.2256  158.0813 C.3     1  UNL1        0.0897
@<TRIPOS>BOND
     1    29    30    1
     2    30    31    1
     3    31    32    1
     4    32    33    1
     5    33    28    1
     6    28     1    1
     7     1     2   ar
     8     2     3   ar
     9     3     4   ar
    10     4     5   ar
    11     5     6   ar
    12     5     7    1
    13     7     8    1
    14     8     9    2
    15     9    13    1
    16    13    14   ar
    17    14    15   ar
    18    15    16   ar
    19    16    18    1
    20    18    19    3
    21    19    20    1
    22    20    21    1
    23    21    22    1
    24    22    23   ar
    25    23    24   ar
    26    24    25   ar
    27    25    26   ar
    28    26    27   ar
    29    16    17   ar
    30     9    10    1
    31    10    11    2
    32    11    12    1
    33    33    34    1
    34    34    35    1
    35    35    30    1
    36     6     1   ar
    37    12     8    1
    38    12     4    1
    39    17    13   ar
    40    27    22   ar
@<TRIPOS>MOLECULE
*****
 35 40 0 0 0
SMALL
GASTEIGER

@<TRIPOS>ATOM
      1 C         142.5491  132.7881  153.8709 C.ar    1  UNL1       -0.0065
      2 C         141.9647  133.8115  152.9430 C.ar    1  UNL1       -0.0032
      3 C         141.7695  135.2233  153.4107 C.ar    1  UNL1       -0.0026
      4 C         142.1586  135.6116  154.8063 C.ar    1  UNL1        0.0019
      5 C         142.7430  134.5882  155.7342 C.ar    1  UNL1       -0.0200
      6 C         142.9382  133.1764  155.2665 C.ar    1  UNL1       -0.0071
      7 C         143.0300  135.2604  157.0441 C.3     1  UNL1        0.0519
      8 C         142.6230  136.6993  156.9257 C.2     1  UNL1        0.0074
      9 C         142.5489  138.0039  157.6621 C.2     1  UNL1        0.0976
     10 N         141.9645  139.0273  156.7342 N.2     1  UNL1       -0.1526
     11 N         141.6775  138.3552  155.4244 N.2     1  UNL1       -0.1678
     12 C         142.0844  136.9164  155.5427 C.3     1  UNL1        0.1672
     13 C         142.9829  138.2432  159.0779 C.ar    1  UNL1        0.0265
     14 C         142.9187  137.2493  160.1997 C.ar    1  UNL1        0.0376
     15 S         143.4535  137.9102  161.4355 S.2     1  UNL1       -0.0780
     16 C         143.8482  139.3124  161.0775 C.ar    1  UNL1        0.0711
     17 C         143.5574  139.5182  159.6205 C.ar    1  UNL1        0.0168
     18 C         144.4313  140.3301  162.0125 C.1     1  UNL1       -0.0543
     19 C         145.0145  141.3479  162.9475 C.1     1  UNL1       -0.0388
     20 C         145.5976  142.3656  163.8824 C.3     1  UNL1        0.2815
     21 O         144.7579  142.9393  164.9850 O.3     1  UNL1       -0.4596
     22 C         143.4118  143.5245  164.6757 C.ar    1  UNL1        0.1591
     23 C         143.3117  144.8268  163.9382 C.ar    1  UNL1        0.0402
     24 C         141.9657  145.4121  163.6288 C.ar    1  UNL1        0.0238
     25 C         140.7198  144.6950  164.0570 C.ar    1  UNL1        0.0991
     26 N         140.8199  143.3926  164.7945 N.ar    1  UNL1       -0.2391
     27 C         142.1658  142.8074  165.1039 C.ar    1  UNL1        0.1357
     28 C         142.7444  131.3763  153.4032 C.3     1  UNL1        0.0992
     29 C         144.3218  127.1106  157.3167 C.3     1  UNL1        0.0897
     30 N         143.9275  128.1770  156.3383 N.3     1  UNL1       -0.2691
     31 C         144.9806  128.9009  155.5531 C.3     1  UNL1        0.0897
     32 C         144.5863  129.9674  154.5746 C.3     1  UNL1        0.0899
     33 N         143.1387  130.3099  154.3815 N.3     1  UNL1       -0.2665
     34 C         142.0855  129.5858  155.1669 C.3     1  UNL1        0.0899
     35 C         142.4799  128.5194  156.1452 C.3     1  UNL1        0.0897
@<TRIPOS>BOND
     1    29    30    1
     2    30    31    1
     3    31    32    1
     4    32    33    1
     5    33    28    1
     6    28     1    1
     7     1     2   ar
     8     2     3   ar
     9     3     4   ar
    10     4     5   ar
    11     5     6   ar
    12     5     7    1
    13     7     8    1
    14     8     9    2
    15     9    13    1
    16    13    14   ar
    17    14    15   ar
    18    15    16   ar
    19    16    18    1
    20    18    19    3
    21    19    20    1
    22    20    21    1
    23    21    22    1
    24    22    23   ar
    25    23    24   ar
    26    24    25   ar
    27    25    26   ar
    28    26    27   ar
    29    16    17   ar
    30     9    10    1
    31    10    11    2
    32    11    12    1
    33    33    34    1
    34    34    35    1
    35    35    30    1
    36     6     1   ar
    37    12     8    1
    38    12     4    1
    39    17    13   ar
    40    27    22   ar
@<TRIPOS>MOLECULE
*****
 35 40 0 0 0
SMALL
GASTEIGER

@<TRIPOS>ATOM
      1 C         139.8544  146.1947  155.8061 C.ar    1  UNL1       -0.0065
      2 C         140.7838  145.5925  154.7944 C.ar    1  UNL1       -0.0032
      3 C         141.8968  144.6916  155.2412 C.ar    1  UNL1       -0.0026
      4 C         142.0804  144.3929  156.6996 C.ar    1  UNL1        0.0019
      5 C         141.1510  144.9951  157.7113 C.ar    1  UNL1       -0.0200
      6 C         140.0380  145.8960  157.2646 C.ar    1  UNL1       -0.0071
      7 C         141.5758  144.5225  159.0700 C.3     1  UNL1        0.0519
      8 C         142.7678  143.6282  158.8981 C.2     1  UNL1        0.0074
      9 C         143.7669  142.7834  159.6316 C.2     1  UNL1        0.0976
     10 N         144.6963  142.1813  158.6198 N.2     1  UNL1       -0.1526
     11 N         144.2715  142.6539  157.2611 N.2     1  UNL1       -0.1678
     12 C         143.0796  143.5481  157.4331 C.3     1  UNL1        0.1672
     13 C         143.8263  142.5771  161.1161 C.ar    1  UNL1        0.0265
     14 C         143.9835  143.6523  162.1502 C.ar    1  UNL1        0.0376
     15 S         143.9932  142.9990  163.5004 S.2     1  UNL1       -0.0780
     16 C         143.8420  141.5201  163.3008 C.ar    1  UNL1        0.0711
     17 C         143.7388  141.2593  161.8273 C.ar    1  UNL1        0.0168
     18 C         143.8011  140.4838  164.3845 C.1     1  UNL1       -0.0543
     19 C         143.7602  139.4475  165.4683 C.1     1  UNL1       -0.0388
     20 C         143.7194  138.4113  166.5521 C.3     1  UNL1        0.2815
     21 O         143.0317  138.7112  167.8510 O.3     1  UNL1       -0.4596
     22 C         142.3081  140.0124  168.0336 C.ar    1  UNL1        0.1591
     23 C         143.0332  141.2022  168.5891 C.ar    1  UNL1        0.0402
     24 C         142.3097  142.5034  168.7717 C.ar    1  UNL1        0.0238
     25 C         140.8611  142.6148  168.3988 C.ar    1  UNL1        0.0991
     26 N         140.1360  141.4250  167.8432 N.ar    1  UNL1       -0.2391
     27 C         140.8595  140.1238  167.6606 C.ar    1  UNL1        0.1357
     28 C         138.7413  147.0956  155.3594 C.3     1  UNL1        0.0992
     29 C         139.8707  152.8445  154.0655 C.3     1  UNL1        0.0897
     30 N         139.5884  151.4073  154.3890 N.3     1  UNL1       -0.2691
     31 C         140.0242  150.3264  153.4447 C.3     1  UNL1        0.0897
     32 C         139.7418  148.8891  153.7682 C.3     1  UNL1        0.0899
     33 N         139.0237  148.5328  155.0359 N.3     1  UNL1       -0.2665
     34 C         138.5879  149.6138  155.9803 C.3     1  UNL1        0.0899
     35 C         138.8702  151.0510  155.6568 C.3     1  UNL1        0.0897
@<TRIPOS>BOND
     1    29    30    1
     2    30    31    1
     3    31    32    1
     4    32    33    1
     5    33    28    1
     6    28     1    1
     7     1     2   ar
     8     2     3   ar
     9     3     4   ar
    10     4     5   ar
    11     5     6   ar
    12     5     7    1
    13     7     8    1
    14     8     9    2
    15     9    13    1
    16    13    14   ar
    17    14    15   ar
    18    15    16   ar
    19    16    18    1
    20    18    19    3
    21    19    20    1
    22    20    21    1
    23    21    22    1
    24    22    23   ar
    25    23    24   ar
    26    24    25   ar
    27    25    26   ar
    28    26    27   ar
    29    16    17   ar
    30     9    10    1
    31    10    11    2
    32    11    12    1
    33    33    34    1
    34    34    35    1
    35    35    30    1
    36     6     1   ar
    37    12     8    1
    38    12     4    1
    39    17    13   ar
    40    27    22   ar
