@<TRIPOS>MOLECULE
*****
 30 33 0 0 0
SMALL
GASTEIGER

@<TRIPOS>ATOM
      1 C         141.3346  141.7558  163.6980 C.2     1  UNL1        0.2306
      2 O         141.1040  140.6542  162.7064 O.2     1  UNL1       -0.2745
      3 N         140.8773  141.5950  165.1175 N.am    1  UNL1       -0.2711
      4 C         141.0376  142.6047  166.2152 C.3     1  UNL1        0.1202
      5 C         140.4388  142.0299  167.4646 C.ar    1  UNL1       -0.0047
      6 C         140.3080  142.5731  168.8567 C.ar    1  UNL1       -0.0029
      7 C         139.6469  141.7514  169.9233 C.ar    1  UNL1       -0.0003
      8 C         139.1165  140.3865  169.5979 C.ar    1  UNL1       -0.0001
      9 C         139.2474  139.8434  168.2058 C.ar    1  UNL1       -0.0029
     10 C         139.9085  140.6650  167.1392 C.ar    1  UNL1       -0.0047
     11 C         140.1795  140.3962  165.6886 C.3     1  UNL1        0.1202
     12 C         138.4554  139.5648  170.6645 C.2     1  UNL1        0.0047
     13 C         137.0496  139.0781  170.4729 C.2     1  UNL1        0.0598
     14 C         136.3885  138.2564  171.5395 C.2     1  UNL1        0.2679
     15 O         136.9787  136.9382  171.9446 O.2     1  UNL1       -0.2681
     16 N         135.1371  138.7529  172.2010 N.am    1  UNL1       -0.1934
     17 O         134.4760  137.9312  173.2677 O.3     1  UNL1       -0.2949
     18 H         134.7497  139.6180  171.9352 H       1  UNL1        0.1825
     19 H         134.9817  137.1153  173.4073 H       1  UNL1        0.2414
     20 C         142.0225  143.0182  163.2701 C.3     1  UNL1        0.1125
     21 C         139.5066  145.0221  163.8219 C.3     1  UNL1        0.0518
     22 C         140.2191  144.8408  162.5144 C.2     1  UNL1        0.0556
     23 N         139.9004  145.5488  161.2310 N.2     1  UNL1       -0.2503
     24 C         140.8598  145.0654  160.1842 C.2     1  UNL1        0.0770
     25 C         141.0209  145.4118  158.7337 C.2     1  UNL1        0.0184
     26 C         142.0938  144.7515  157.9197 C.2     1  UNL1       -0.0027
     27 C         143.0056  143.7446  158.5561 C.2     1  UNL1       -0.0213
     28 C         142.8444  143.3982  160.0066 C.3     1  UNL1        0.0536
     29 C         141.7715  144.0585  160.8206 C.2     1  UNL1       -0.0025
     30 C         141.3756  143.9198  162.2608 C.2     1  UNL1       -0.0017
@<TRIPOS>BOND
     1    21    22    1
     2    22    23    2
     3    23    24    1
     4    24    25    2
     5    25    26    1
     6    26    27    2
     7    27    28    1
     8    28    29    1
     9    29    30    2
    10    30    20    1
    11    20     1    1
    12     1     2    2
    13     1     3   am
    14     3     4    1
    15     4     5    1
    16     5     6   ar
    17     6     7   ar
    18     7     8   ar
    19     8    12    1
    20    12    13    2
    21    13    14    1
    22    14    15    2
    23    14    16   am
    24    16    17    1
    25     8     9   ar
    26     9    10   ar
    27    10    11    1
    28    30    22    1
    29    11     3    1
    30    29    24    1
    31    10     5   ar
    32    16    18    1
    33    17    19    1
@<TRIPOS>MOLECULE
*****
 30 33 0 0 0
SMALL
GASTEIGER

@<TRIPOS>ATOM
      1 C         138.3580  141.4119  159.8979 C.2     1  UNL1        0.2306
      2 O         138.1181  142.8906  159.8212 O.2     1  UNL1       -0.2745
      3 N         138.4276  140.7317  161.2330 N.am    1  UNL1       -0.2711
      4 C         138.6602  139.2683  161.4659 C.3     1  UNL1        0.1202
      5 C         138.6532  139.0277  162.9464 C.ar    1  UNL1       -0.0047
      6 C         138.8319  137.7813  163.7616 C.ar    1  UNL1       -0.0029
      7 C         138.7737  137.8496  165.2589 C.ar    1  UNL1       -0.0003
      8 C         138.5369  139.1643  165.9411 C.ar    1  UNL1       -0.0001
      9 C         138.3581  140.4107  165.1259 C.ar    1  UNL1       -0.0029
     10 C         138.4163  140.3424  163.6286 C.ar    1  UNL1       -0.0047
     11 C         138.2769  141.3956  162.5697 C.3     1  UNL1        0.1202
     12 C         138.4787  139.2326  167.4384 C.2     1  UNL1        0.0047
     13 C         139.4512  140.0939  168.1882 C.2     1  UNL1        0.0598
     14 C         139.3930  140.1622  169.6855 C.2     1  UNL1        0.2679
     15 O         138.0882  139.9547  170.3957 O.2     1  UNL1       -0.2681
     16 N         140.6398  140.4380  170.4727 N.am    1  UNL1       -0.1934
     17 O         140.5816  140.5063  171.9700 O.3     1  UNL1       -0.2949
     18 H         141.4962  140.5742  170.0066 H       1  UNL1        0.1825
     19 H         139.6709  140.3509  172.2656 H       1  UNL1        0.2414
     20 C         138.5283  140.6134  158.6395 C.3     1  UNL1        0.1125
     21 C         141.0034  142.2019  157.2252 C.3     1  UNL1        0.0518
     22 C         139.6267  142.0284  156.6555 C.2     1  UNL1        0.0556
     23 N         139.1458  142.5546  155.3357 N.2     1  UNL1       -0.2503
     24 C         137.7110  142.1497  155.1701 C.2     1  UNL1        0.0770
     25 C         136.7217  142.3876  154.0680 C.2     1  UNL1        0.0184
     26 C         135.3265  141.8492  154.1834 C.2     1  UNL1       -0.0027
     27 C         134.9206  141.0727  155.4009 C.2     1  UNL1       -0.0213
     28 C         135.9099  140.8347  156.5030 C.3     1  UNL1        0.0536
     29 C         137.3051  141.3732  156.3876 C.2     1  UNL1       -0.0025
     30 C         138.4890  141.2983  157.3056 C.2     1  UNL1       -0.0017
@<TRIPOS>BOND
     1    21    22    1
     2    22    23    2
     3    23    24    1
     4    24    25    2
     5    25    26    1
     6    26    27    2
     7    27    28    1
     8    28    29    1
     9    29    30    2
    10    30    20    1
    11    20     1    1
    12     1     2    2
    13     1     3   am
    14     3     4    1
    15     4     5    1
    16     5     6   ar
    17     6     7   ar
    18     7     8   ar
    19     8    12    1
    20    12    13    2
    21    13    14    1
    22    14    15    2
    23    14    16   am
    24    16    17    1
    25     8     9   ar
    26     9    10   ar
    27    10    11    1
    28    30    22    1
    29    11     3    1
    30    29    24    1
    31    10     5   ar
    32    16    18    1
    33    17    19    1
@<TRIPOS>MOLECULE
*****
 30 33 0 0 0
SMALL
GASTEIGER

@<TRIPOS>ATOM
      1 C         140.2526  145.4053  160.9677 C.2     1  UNL1        0.2306
      2 O         139.2349  146.4976  161.1134 O.2     1  UNL1       -0.2745
      3 N         140.6148  144.5552  162.1492 N.am    1  UNL1       -0.2711
      4 C         141.6092  143.4322  162.1557 C.3     1  UNL1        0.1202
      5 C         141.6552  142.8618  163.5422 C.ar    1  UNL1       -0.0047
      6 C         142.4519  141.7404  164.1403 C.ar    1  UNL1       -0.0029
      7 C         142.2826  141.3894  165.5888 C.ar    1  UNL1       -0.0003
      8 C         141.3166  142.1598  166.4392 C.ar    1  UNL1       -0.0001
      9 C         140.5199  143.2813  165.8412 C.ar    1  UNL1       -0.0029
     10 C         140.6892  143.6323  164.3927 C.ar    1  UNL1       -0.0047
     11 C         140.0462  144.6789  163.5318 C.3     1  UNL1        0.1202
     12 C         141.1473  141.8089  167.8877 C.2     1  UNL1        0.0047
     13 C         140.3220  142.6871  168.7808 C.2     1  UNL1        0.0598
     14 C         140.1527  142.3361  170.2292 C.2     1  UNL1        0.2679
     15 O         139.3425  143.2241  171.1264 O.2     1  UNL1       -0.2681
     16 N         140.7936  141.0970  170.7806 N.am    1  UNL1       -0.1934
     17 O         140.6243  140.7460  172.2291 O.3     1  UNL1       -0.2949
     18 H         141.3254  140.5142  170.1917 H       1  UNL1        0.1825
     19 H         140.0770  141.4191  172.6630 H       1  UNL1        0.2414
     20 C         140.9081  145.1631  159.6403 C.3     1  UNL1        0.1125
     21 C         140.5527  146.3663  156.6277 C.3     1  UNL1        0.0518
     22 C         139.9674  145.0836  157.1395 C.2     1  UNL1        0.0556
     23 N         139.1159  144.1286  156.3565 N.2     1  UNL1       -0.2503
     24 C         138.7531  142.9854  157.2573 C.2     1  UNL1        0.0770
     25 C         137.9326  141.7503  157.0307 C.2     1  UNL1        0.0184
     26 C         137.7393  140.7637  158.1438 C.2     1  UNL1       -0.0027
     27 C         138.3665  141.0121  159.4835 C.2     1  UNL1       -0.0213
     28 C         139.1870  142.2471  159.7102 C.3     1  UNL1        0.0536
     29 C         139.3803  143.2338  158.5971 C.2     1  UNL1       -0.0025
     30 C         140.1307  144.5305  158.5243 C.2     1  UNL1       -0.0017
@<TRIPOS>BOND
     1    21    22    1
     2    22    23    2
     3    23    24    1
     4    24    25    2
     5    25    26    1
     6    26    27    2
     7    27    28    1
     8    28    29    1
     9    29    30    2
    10    30    20    1
    11    20     1    1
    12     1     2    2
    13     1     3   am
    14     3     4    1
    15     4     5    1
    16     5     6   ar
    17     6     7   ar
    18     7     8   ar
    19     8    12    1
    20    12    13    2
    21    13    14    1
    22    14    15    2
    23    14    16   am
    24    16    17    1
    25     8     9   ar
    26     9    10   ar
    27    10    11    1
    28    30    22    1
    29    11     3    1
    30    29    24    1
    31    10     5   ar
    32    16    18    1
    33    17    19    1
@<TRIPOS>MOLECULE
*****
 30 33 0 0 0
SMALL
GASTEIGER

@<TRIPOS>ATOM
      1 C         142.4329  138.1238  160.9689 C.2     1  UNL1        0.2306
      2 O         143.8546  137.7012  161.1928 O.2     1  UNL1       -0.2745
      3 N         141.5750  138.5177  162.1347 N.am    1  UNL1       -0.2711
      4 C         140.1434  138.9600  162.0662 C.3     1  UNL1        0.1202
      5 C         139.6818  139.2540  163.4628 C.ar    1  UNL1       -0.0047
      6 C         138.3657  139.7254  164.0065 C.ar    1  UNL1       -0.0029
      7 C         138.1960  139.9361  165.4819 C.ar    1  UNL1       -0.0003
      8 C         139.3424  139.6755  166.4136 C.ar    1  UNL1       -0.0001
      9 C         140.6585  139.2041  165.8698 C.ar    1  UNL1       -0.0029
     10 C         140.8282  138.9934  164.3944 C.ar    1  UNL1       -0.0047
     11 C         141.9983  138.5383  163.5736 C.3     1  UNL1        0.1202
     12 C         139.1727  139.8863  167.8889 C.2     1  UNL1        0.0047
     13 C         140.3274  140.3698  168.7153 C.2     1  UNL1        0.0598
     14 C         140.1576  140.5805  170.1906 C.2     1  UNL1        0.2679
     15 O         139.5399  139.5061  171.0356 O.2     1  UNL1       -0.2681
     16 N         140.6057  141.8657  170.8211 N.am    1  UNL1       -0.1934
     17 O         140.4360  142.0765  172.2965 O.3     1  UNL1       -0.2949
     18 H         141.0111  142.5709  170.2665 H       1  UNL1        0.1825
     19 H         140.0242  141.2913  172.6900 H       1  UNL1        0.2414
     20 C         141.8690  138.1526  159.5792 C.3     1  UNL1        0.1125
     21 C         142.4281  136.4827  156.8317 C.3     1  UNL1        0.0518
     22 C         142.9810  137.8356  157.1692 C.2     1  UNL1        0.0556
     23 N         143.8880  138.6585  156.3031 N.2     1  UNL1       -0.2503
     24 C         144.1916  139.9347  157.0306 C.2     1  UNL1        0.0770
     25 C         145.0301  141.1234  156.6650 C.2     1  UNL1        0.0184
     26 C         145.1493  142.2779  157.6151 C.2     1  UNL1       -0.0027
     27 C         144.4299  142.2437  158.9309 C.2     1  UNL1       -0.0213
     28 C         143.5913  141.0550  159.2966 C.3     1  UNL1        0.0536
     29 C         143.4722  139.9005  158.3464 C.2     1  UNL1       -0.0025
     30 C         142.7240  138.6032  158.4320 C.2     1  UNL1       -0.0017
@<TRIPOS>BOND
     1    21    22    1
     2    22    23    2
     3    23    24    1
     4    24    25    2
     5    25    26    1
     6    26    27    2
     7    27    28    1
     8    28    29    1
     9    29    30    2
    10    30    20    1
    11    20     1    1
    12     1     2    2
    13     1     3   am
    14     3     4    1
    15     4     5    1
    16     5     6   ar
    17     6     7   ar
    18     7     8   ar
    19     8    12    1
    20    12    13    2
    21    13    14    1
    22    14    15    2
    23    14    16   am
    24    16    17    1
    25     8     9   ar
    26     9    10   ar
    27    10    11    1
    28    30    22    1
    29    11     3    1
    30    29    24    1
    31    10     5   ar
    32    16    18    1
    33    17    19    1
@<TRIPOS>MOLECULE
*****
 30 33 0 0 0
SMALL
GASTEIGER

@<TRIPOS>ATOM
      1 C         138.3497  141.3780  159.9252 C.2     1  UNL1        0.2306
      2 O         138.1093  142.8565  159.8460 O.2     1  UNL1       -0.2745
      3 N         138.4188  140.6999  161.2613 N.am    1  UNL1       -0.2711
      4 C         138.6517  139.2368  161.4965 C.3     1  UNL1        0.1202
      5 C         138.6440  138.9985  162.9774 C.ar    1  UNL1       -0.0047
      6 C         138.8228  137.7534  163.7945 C.ar    1  UNL1       -0.0029
      7 C         138.7638  137.8239  165.2917 C.ar    1  UNL1       -0.0003
      8 C         138.5261  139.1396  165.9718 C.ar    1  UNL1       -0.0001
      9 C         138.3474  140.3847  165.1547 C.ar    1  UNL1       -0.0029
     10 C         138.4064  140.3142  163.6575 C.ar    1  UNL1       -0.0047
     11 C         138.2672  141.3657  162.5969 C.3     1  UNL1        0.1202
     12 C         138.4672  139.2101  167.4689 C.2     1  UNL1        0.0047
     13 C         139.4478  140.0621  168.2188 C.2     1  UNL1        0.0598
     14 C         139.3889  140.1326  169.7160 C.2     1  UNL1        0.2679
     15 O         138.0829  139.9302  170.4256 O.2     1  UNL1       -0.2681
     16 N         140.6359  140.4056  170.5036 N.am    1  UNL1       -0.1934
     17 O         140.5770  140.4762  172.0008 O.3     1  UNL1       -0.2949
     18 H         141.4931  140.5385  170.0379 H       1  UNL1        0.1825
     19 H         139.6656  140.3240  172.2960 H       1  UNL1        0.2414
     20 C         138.5209  140.5776  158.6681 C.3     1  UNL1        0.1125
     21 C         138.3859  141.5595  155.5588 C.3     1  UNL1        0.0518
     22 C         139.6345  141.2827  156.3426 C.2     1  UNL1        0.0556
     23 N         141.0403  141.4085  155.8348 N.2     1  UNL1       -0.2503
     24 C         141.9712  141.0351  156.9501 C.2     1  UNL1        0.0770
     25 C         143.4678  140.9737  157.0303 C.2     1  UNL1        0.0184
     26 C         144.1339  140.5557  158.3076 C.2     1  UNL1       -0.0027
     27 C         143.3034  140.1989  159.5047 C.2     1  UNL1       -0.0213
     28 C         141.8069  140.2603  159.4245 C.3     1  UNL1        0.0536
     29 C         141.1408  140.6783  158.1472 C.2     1  UNL1       -0.0025
     30 C         139.6966  140.8314  157.7717 C.2     1  UNL1       -0.0017
@<TRIPOS>BOND
     1    21    22    1
     2    22    23    2
     3    23    24    1
     4    24    25    2
     5    25    26    1
     6    26    27    2
     7    27    28    1
     8    28    29    1
     9    29    30    2
    10    30    20    1
    11    20     1    1
    12     1     2    2
    13     1     3   am
    14     3     4    1
    15     4     5    1
    16     5     6   ar
    17     6     7   ar
    18     7     8   ar
    19     8    12    1
    20    12    13    2
    21    13    14    1
    22    14    15    2
    23    14    16   am
    24    16    17    1
    25     8     9   ar
    26     9    10   ar
    27    10    11    1
    28    30    22    1
    29    11     3    1
    30    29    24    1
    31    10     5   ar
    32    16    18    1
    33    17    19    1
@<TRIPOS>MOLECULE
*****
 30 33 0 0 0
SMALL
GASTEIGER

@<TRIPOS>ATOM
      1 C         140.5303  144.4398  161.1486 C.2     1  UNL1        0.2306
      2 O         139.0949  144.2657  160.7495 O.2     1  UNL1       -0.2745
      3 N         141.0118  143.9102  162.4668 N.am    1  UNL1       -0.2711
      4 C         142.4108  144.0089  162.9988 C.3     1  UNL1        0.1202
      5 C         142.4423  143.3486  164.3452 C.ar    1  UNL1       -0.0047
      6 C         143.5491  143.1434  165.3367 C.ar    1  UNL1       -0.0029
      7 C         143.2763  142.4313  166.6284 C.ar    1  UNL1       -0.0003
      8 C         141.8968  141.9245  166.9287 C.ar    1  UNL1       -0.0001
      9 C         140.7900  142.1298  165.9372 C.ar    1  UNL1       -0.0029
     10 C         141.0628  142.8418  164.6455 C.ar    1  UNL1       -0.0047
     11 C         140.1787  143.1889  163.4845 C.3     1  UNL1        0.1202
     12 C         141.6240  141.2125  168.2204 C.2     1  UNL1        0.0047
     13 C         140.6169  141.7666  169.1841 C.2     1  UNL1        0.0598
     14 C         140.3441  141.0545  170.4758 C.2     1  UNL1        0.2679
     15 O         140.5904  141.7497  171.7820 O.2     1  UNL1       -0.2681
     16 N         139.8250  139.6473  170.4614 N.am    1  UNL1       -0.1934
     17 O         139.5522  138.9353  171.7531 O.3     1  UNL1       -0.2949
     18 H         139.6633  139.1910  169.6041 H       1  UNL1        0.1825
     19 H         139.7628  139.5218  172.4964 H       1  UNL1        0.2414
     20 C         141.4843  145.1435  160.2294 C.3     1  UNL1        0.1125
     21 C         143.4546  142.6908  159.3623 C.3     1  UNL1        0.0518
     22 C         142.6016  143.5062  158.4362 C.2     1  UNL1        0.0556
     23 N         142.5045  143.3374  156.9489 N.2     1  UNL1       -0.2503
     24 C         141.5389  144.3604  156.4283 C.2     1  UNL1        0.0770
     25 C         141.0501  144.6659  155.0435 C.2     1  UNL1        0.0184
     26 C         140.0616  145.7726  154.8242 C.2     1  UNL1       -0.0027
     27 C         139.5619  146.5737  155.9898 C.2     1  UNL1       -0.0213
     28 C         140.0507  146.2681  157.3746 C.3     1  UNL1        0.0536
     29 C         141.0392  145.1615  157.5938 C.2     1  UNL1       -0.0025
     30 C         141.6960  144.6336  158.8347 C.2     1  UNL1       -0.0017
@<TRIPOS>BOND
     1    21    22    1
     2    22    23    2
     3    23    24    1
     4    24    25    2
     5    25    26    1
     6    26    27    2
     7    27    28    1
     8    28    29    1
     9    29    30    2
    10    30    20    1
    11    20     1    1
    12     1     2    2
    13     1     3   am
    14     3     4    1
    15     4     5    1
    16     5     6   ar
    17     6     7   ar
    18     7     8   ar
    19     8    12    1
    20    12    13    2
    21    13    14    1
    22    14    15    2
    23    14    16   am
    24    16    17    1
    25     8     9   ar
    26     9    10   ar
    27    10    11    1
    28    30    22    1
    29    11     3    1
    30    29    24    1
    31    10     5   ar
    32    16    18    1
    33    17    19    1
@<TRIPOS>MOLECULE
*****
 30 33 0 0 0
SMALL
GASTEIGER

@<TRIPOS>ATOM
      1 C         138.3655  141.4017  159.9012 C.2     1  UNL1        0.2306
      2 O         138.1156  142.8786  159.8221 O.2     1  UNL1       -0.2745
      3 N         138.4357  140.7233  161.2372 N.am    1  UNL1       -0.2711
      4 C         138.6776  139.2617  161.4722 C.3     1  UNL1        0.1202
      5 C         138.6676  139.0226  162.9530 C.ar    1  UNL1       -0.0047
      6 C         138.8524  137.7783  163.7700 C.ar    1  UNL1       -0.0029
      7 C         138.7891  137.8476  165.2670 C.ar    1  UNL1       -0.0003
      8 C         138.5411  139.1614  165.9471 C.ar    1  UNL1       -0.0001
      9 C         138.3563  140.4057  165.1302 C.ar    1  UNL1       -0.0029
     10 C         138.4196  140.3364  163.6331 C.ar    1  UNL1       -0.0047
     11 C         138.2762  141.3875  162.5727 C.3     1  UNL1        0.1202
     12 C         138.4778  139.2308  167.4442 C.2     1  UNL1        0.0047
     13 C         139.4460  140.0947  168.1966 C.2     1  UNL1        0.0598
     14 C         139.3827  140.1641  169.6936 C.2     1  UNL1        0.2679
     15 O         138.0746  139.9617  170.3992 O.2     1  UNL1       -0.2681
     16 N         140.6276  140.4358  170.4851 N.am    1  UNL1       -0.1934
     17 O         140.5643  140.5052  171.9821 O.3     1  UNL1       -0.2949
     18 H         141.4862  140.5686  170.0220 H       1  UNL1        0.1825
     19 H         139.6520  140.3533  172.2746 H       1  UNL1        0.2414
     20 C         138.5453  140.6031  158.6441 C.3     1  UNL1        0.1125
     21 C         141.0766  138.5434  158.6470 C.3     1  UNL1        0.0518
     22 C         140.9645  139.8015  157.8379 C.2     1  UNL1        0.0556
     23 N         141.9962  140.3337  156.8880 N.2     1  UNL1       -0.2503
     24 C         141.4703  141.6094  156.2996 C.2     1  UNL1        0.0770
     25 C         142.0516  142.5707  155.3057 C.2     1  UNL1        0.0184
     26 C         141.2762  143.7883  154.8981 C.2     1  UNL1       -0.0027
     27 C         139.9195  144.0445  155.4844 C.2     1  UNL1       -0.0213
     28 C         139.3382  143.0831  156.4782 C.3     1  UNL1        0.0536
     29 C         140.1136  141.8655  156.8858 C.2     1  UNL1       -0.0025
     30 C         139.8010  140.7482  157.8365 C.2     1  UNL1       -0.0017
@<TRIPOS>BOND
     1    21    22    1
     2    22    23    2
     3    23    24    1
     4    24    25    2
     5    25    26    1
     6    26    27    2
     7    27    28    1
     8    28    29    1
     9    29    30    2
    10    30    20    1
    11    20     1    1
    12     1     2    2
    13     1     3   am
    14     3     4    1
    15     4     5    1
    16     5     6   ar
    17     6     7   ar
    18     7     8   ar
    19     8    12    1
    20    12    13    2
    21    13    14    1
    22    14    15    2
    23    14    16   am
    24    16    17    1
    25     8     9   ar
    26     9    10   ar
    27    10    11    1
    28    30    22    1
    29    11     3    1
    30    29    24    1
    31    10     5   ar
    32    16    18    1
    33    17    19    1
@<TRIPOS>MOLECULE
*****
 30 33 0 0 0
SMALL
GASTEIGER

@<TRIPOS>ATOM
      1 C         143.1492  138.1779  161.1559 C.2     1  UNL1        0.2306
      2 O         144.4413  138.9395  161.1770 O.2     1  UNL1       -0.2745
      3 N         142.1890  138.2981  162.3020 N.am    1  UNL1       -0.2711
      4 C         140.8661  137.6011  162.4207 C.3     1  UNL1        0.1202
      5 C         140.2427  138.0087  163.7227 C.ar    1  UNL1       -0.0047
      6 C         138.9423  137.6384  164.3723 C.ar    1  UNL1       -0.0029
      7 C         138.5796  138.2169  165.7078 C.ar    1  UNL1       -0.0003
      8 C         139.5172  139.1658  166.3938 C.ar    1  UNL1       -0.0001
      9 C         140.8175  139.5361  165.7443 C.ar    1  UNL1       -0.0029
     10 C         141.1803  138.9576  164.4087 C.ar    1  UNL1       -0.0047
     11 C         142.3832  139.1364  163.5307 C.3     1  UNL1        0.1202
     12 C         139.1544  139.7443  167.7293 C.2     1  UNL1        0.0047
     13 C         140.2136  140.3670  168.5897 C.2     1  UNL1        0.0598
     14 C         139.8509  140.9455  169.9253 C.2     1  UNL1        0.2679
     15 O         138.4375  140.8608  170.4204 O.2     1  UNL1       -0.2681
     16 N         140.9015  141.6087  170.7657 N.am    1  UNL1       -0.1934
     17 O         140.5388  142.1873  172.1012 O.3     1  UNL1       -0.2949
     18 H         141.8292  141.6643  170.4407 H       1  UNL1        0.1825
     19 H         139.5932  142.0487  172.2675 H       1  UNL1        0.2414
     20 C         142.8173  137.2960  159.9887 C.3     1  UNL1        0.1125
     21 C         141.5894  140.2803  159.5031 C.3     1  UNL1        0.0518
     22 C         141.9164  139.2772  158.4369 C.2     1  UNL1        0.0556
     23 N         141.7363  139.4696  156.9602 N.2     1  UNL1       -0.2503
     24 C         142.1895  138.2168  156.2708 C.2     1  UNL1        0.0770
     25 C         142.2426  137.8315  154.8221 C.2     1  UNL1        0.0184
     26 C         142.7558  136.4794  154.4241 C.2     1  UNL1       -0.0027
     27 C         143.2159  135.5127  155.4747 C.2     1  UNL1       -0.0213
     28 C         143.1628  135.8980  156.9234 C.3     1  UNL1        0.0536
     29 C         142.6496  137.2501  157.3214 C.2     1  UNL1       -0.0025
     30 C         142.4808  137.9054  158.6601 C.2     1  UNL1       -0.0017
@<TRIPOS>BOND
     1    21    22    1
     2    22    23    2
     3    23    24    1
     4    24    25    2
     5    25    26    1
     6    26    27    2
     7    27    28    1
     8    28    29    1
     9    29    30    2
    10    30    20    1
    11    20     1    1
    12     1     2    2
    13     1     3   am
    14     3     4    1
    15     4     5    1
    16     5     6   ar
    17     6     7   ar
    18     7     8   ar
    19     8    12    1
    20    12    13    2
    21    13    14    1
    22    14    15    2
    23    14    16   am
    24    16    17    1
    25     8     9   ar
    26     9    10   ar
    27    10    11    1
    28    30    22    1
    29    11     3    1
    30    29    24    1
    31    10     5   ar
    32    16    18    1
    33    17    19    1
@<TRIPOS>MOLECULE
*****
 30 33 0 0 0
SMALL
GASTEIGER

@<TRIPOS>ATOM
      1 C         141.7444  144.3435  160.5190 C.2     1  UNL1        0.2306
      2 O         143.0339  143.8431  159.9386 O.2     1  UNL1       -0.2745
      3 N         141.4138  144.0724  161.9568 N.am    1  UNL1       -0.2711
      4 C         140.1694  144.5072  162.6725 C.3     1  UNL1        0.1202
      5 C         140.2562  144.0224  164.0893 C.ar    1  UNL1       -0.0047
      6 C         139.3208  144.1548  165.2544 C.ar    1  UNL1       -0.0029
      7 C         139.6836  143.5527  166.5796 C.ar    1  UNL1       -0.0003
      8 C         140.9817  142.8183  166.7395 C.ar    1  UNL1       -0.0001
      9 C         141.9170  142.6859  165.5744 C.ar    1  UNL1       -0.0029
     10 C         141.5543  143.2879  164.2492 C.ar    1  UNL1       -0.0047
     11 C         142.2698  143.3189  162.9313 C.3     1  UNL1        0.1202
     12 C         141.3445  142.2163  168.0646 C.2     1  UNL1        0.0047
     13 C         140.6169  142.6409  169.3057 C.2     1  UNL1        0.0598
     14 C         140.9797  142.0388  170.6309 C.2     1  UNL1        0.2679
     15 O         140.1952  142.3982  171.8578 O.2     1  UNL1       -0.2681
     16 N         142.1270  141.0775  170.7290 N.am    1  UNL1       -0.1934
     17 O         142.4897  140.4755  172.0541 O.3     1  UNL1       -0.2949
     18 H         142.6418  140.8417  169.9237 H       1  UNL1        0.1825
     19 H         141.8880  140.8106  172.7371 H       1  UNL1        0.2414
     20 C         140.7855  145.1152  159.6615 C.3     1  UNL1        0.1125
     21 C         138.8021  142.5284  159.8175 C.3     1  UNL1        0.0518
     22 C         139.2032  143.2579  158.5698 C.2     1  UNL1        0.0556
     23 N         138.7631  142.9265  157.1746 N.2     1  UNL1       -0.2503
     24 C         139.4028  143.9106  156.2406 C.2     1  UNL1        0.0770
     25 C         139.3324  144.0725  154.7511 C.2     1  UNL1        0.0184
     26 C         140.0975  145.1741  154.0795 C.2     1  UNL1       -0.0027
     27 C         140.9329  146.1138  154.8975 C.2     1  UNL1       -0.0213
     28 C         141.0033  145.9519  156.3870 C.3     1  UNL1        0.0536
     29 C         140.2382  144.8503  157.0586 C.2     1  UNL1       -0.0025
     30 C         140.1149  144.4469  158.4981 C.2     1  UNL1       -0.0017
@<TRIPOS>BOND
     1    21    22    1
     2    22    23    2
     3    23    24    1
     4    24    25    2
     5    25    26    1
     6    26    27    2
     7    27    28    1
     8    28    29    1
     9    29    30    2
    10    30    20    1
    11    20     1    1
    12     1     2    2
    13     1     3   am
    14     3     4    1
    15     4     5    1
    16     5     6   ar
    17     6     7   ar
    18     7     8   ar
    19     8    12    1
    20    12    13    2
    21    13    14    1
    22    14    15    2
    23    14    16   am
    24    16    17    1
    25     8     9   ar
    26     9    10   ar
    27    10    11    1
    28    30    22    1
    29    11     3    1
    30    29    24    1
    31    10     5   ar
    32    16    18    1
    33    17    19    1
