@<TRIPOS>MOLECULE
*****
 35 39 0 0 0
SMALL
GASTEIGER

@<TRIPOS>ATOM
      1 C         137.6999  142.7313  163.6291 C.3     1  UNL1        0.2355
      2 O         137.8940  141.5751  164.5648 O.3     1  UNL1       -0.3290
      3 C         137.9716  140.1780  164.0247 C.3     1  UNL1        0.1629
      4 C         137.8550  139.9369  162.5487 C.3     1  UNL1        0.1144
      5 C         137.6609  141.0931  161.6130 C.3     1  UNL1        0.1629
      6 O         137.5833  142.4903  162.1532 O.3     1  UNL1       -0.3290
      7 N         137.9326  138.5398  162.0085 N.3     1  UNL1       -0.2895
      8 H         137.2911  138.4941  161.2168 H       1  UNL1        0.1237
      9 C         139.2455  137.9909  161.5342 C.3     1  UNL1        0.1153
     10 C         140.4875  138.2102  162.3461 C.ar    1  UNL1        0.0765
     11 C         140.7292  137.3954  163.5822 C.ar    1  UNL1        0.0193
     12 C         141.9711  137.6148  164.3941 C.ar    1  UNL1        0.0411
     13 C         142.9715  138.6490  163.9702 C.ar    1  UNL1        0.1708
     14 C         142.7298  139.4638  162.7342 C.ar    1  UNL1        0.1682
     15 N         141.4878  139.2444  161.9221 N.ar    1  UNL1       -0.2304
     16 N         143.7302  140.4980  162.3102 N.am    1  UNL1       -0.2639
     17 C         144.9721  140.7174  163.1222 C.2     1  UNL1        0.2718
     18 O         145.9725  141.7516  162.6982 O.2     1  UNL1       -0.2707
     19 C         145.2138  139.9025  164.3582 C.3     1  UNL1        0.2898
     20 O         144.2135  138.8683  164.7822 O.3     1  UNL1       -0.4628
     21 H         143.5716  141.0328  161.4990 H       1  UNL1        0.1565
     22 C         137.6223  144.1285  164.1693 C.3     1  UNL1        0.0660
     23 C         138.8043  144.7276  164.8723 C.3     1  UNL1        0.0316
     24 C         141.0063  142.0005  167.6944 C.ar    1  UNL1        0.1388
     25 C         142.3926  141.5359  167.3596 C.ar    1  UNL1        0.0384
     26 C         143.0450  141.9804  166.0841 C.ar    1  UNL1        0.0222
     27 C         142.3111  142.8894  165.1434 C.ar    1  UNL1        0.0812
     28 N         142.9634  143.3339  163.8680 N.ar    1  UNL1       -0.2439
     29 C         142.2295  144.2429  162.9273 C.ar    1  UNL1        0.0985
     30 C         140.8430  144.7075  163.2620 C.ar    1  UNL1        0.0164
     31 C         140.1906  144.2630  164.5375 C.ar    1  UNL1       -0.0189
     32 C         140.9247  143.3540  165.4782 C.ar    1  UNL1        0.0168
     33 C         140.2723  142.9095  166.7537 C.ar    1  UNL1        0.0381
     34 C         139.5287  140.3037  168.9934 C.3     1  UNL1        0.2525
     35 O         140.3539  141.5560  168.9699 O.3     1  UNL1       -0.4714
@<TRIPOS>BOND
     1    34    35    1
     2    35    24    1
     3    24    25   ar
     4    25    26   ar
     5    26    27   ar
     6    27    28   ar
     7    28    29   ar
     8    29    30   ar
     9    30    31   ar
    10    31    23    1
    11    23    22    1
    12     1    22    1
    13     1     2    1
    14     2     3    1
    15     3     4    1
    16     4     7    1
    17     7     9    1
    18     9    10    1
    19    10    11   ar
    20    11    12   ar
    21    12    13   ar
    22    13    14   ar
    23    14    15   ar
    24    14    16    1
    25    16    17   am
    26    17    18    2
    27    17    19    1
    28    19    20    1
    29     4     5    1
    30     5     6    1
    31    31    32   ar
    32    32    33   ar
    33    33    24   ar
    34    32    27   ar
    35     6     1    1
    36    15    10   ar
    37    20    13    1
    38     7     8    1
    39    16    21    1
@<TRIPOS>MOLECULE
*****
 35 39 0 0 0
SMALL
GASTEIGER

@<TRIPOS>ATOM
      1 C         142.1574  137.9644  164.0611 C.3     1  UNL1        0.2355
      2 O         142.4537  138.2304  162.6150 O.3     1  UNL1       -0.3290
      3 C         143.5814  139.1441  162.2362 C.3     1  UNL1        0.1629
      4 C         144.4129  139.7917  163.3036 C.3     1  UNL1        0.1144
      5 C         144.1165  139.5256  164.7498 C.3     1  UNL1        0.1629
      6 O         142.9887  138.6120  165.1286 O.3     1  UNL1       -0.3290
      7 N         145.5406  140.7053  162.9249 N.3     1  UNL1       -0.2895
      8 H         145.5752  140.7235  161.9056 H       1  UNL1        0.1237
      9 C         145.5351  142.1335  163.3834 C.3     1  UNL1        0.1153
     10 C         144.2986  142.9676  163.2243 C.ar    1  UNL1        0.0765
     11 C         143.5666  143.4624  164.4365 C.ar    1  UNL1        0.0193
     12 C         142.3301  144.2965  164.2774 C.ar    1  UNL1        0.0411
     13 C         141.8256  144.6358  162.9062 C.ar    1  UNL1        0.1708
     14 C         142.5576  144.1411  161.6940 C.ar    1  UNL1        0.1682
     15 N         143.7942  143.3069  161.8531 N.ar    1  UNL1       -0.2304
     16 N         142.0531  144.4804  160.3228 N.am    1  UNL1       -0.2639
     17 C         140.8166  145.3145  160.1637 C.2     1  UNL1        0.2718
     18 O         140.3122  145.6539  158.7924 O.2     1  UNL1       -0.2707
     19 C         140.0846  145.8093  161.3759 C.3     1  UNL1        0.2898
     20 O         140.5890  145.4700  162.7471 O.3     1  UNL1       -0.4628
     21 H         142.5336  144.1557  159.5272 H       1  UNL1        0.1565
     22 C         141.0297  137.0508  164.4399 C.3     1  UNL1        0.0660
     23 C         139.6816  137.6200  164.7697 C.3     1  UNL1        0.0316
     24 C         139.5384  142.0319  165.6445 C.ar    1  UNL1        0.1388
     25 C         138.8630  142.9653  164.6840 C.ar    1  UNL1        0.0384
     26 C         138.2355  142.4282  163.4319 C.ar    1  UNL1        0.0222
     27 C         138.2832  140.9576  163.1403 C.ar    1  UNL1        0.0812
     28 N         137.6556  140.4205  161.8883 N.ar    1  UNL1       -0.2439
     29 C         137.7033  138.9500  161.5967 C.ar    1  UNL1        0.0985
     30 C         138.3787  138.0164  162.5572 C.ar    1  UNL1        0.0164
     31 C         139.0063  138.5535  163.8092 C.ar    1  UNL1       -0.0189
     32 C         138.9585  140.0242  164.1008 C.ar    1  UNL1        0.0168
     33 C         139.5861  140.5613  165.3529 C.ar    1  UNL1        0.0381
     34 C         141.5504  142.1415  167.2845 C.3     1  UNL1        0.2525
     35 O         140.1660  142.5690  166.8965 O.3     1  UNL1       -0.4714
@<TRIPOS>BOND
     1    34    35    1
     2    35    24    1
     3    24    25   ar
     4    25    26   ar
     5    26    27   ar
     6    27    28   ar
     7    28    29   ar
     8    29    30   ar
     9    30    31   ar
    10    31    23    1
    11    23    22    1
    12     1    22    1
    13     1     2    1
    14     2     3    1
    15     3     4    1
    16     4     7    1
    17     7     9    1
    18     9    10    1
    19    10    11   ar
    20    11    12   ar
    21    12    13   ar
    22    13    14   ar
    23    14    15   ar
    24    14    16    1
    25    16    17   am
    26    17    18    2
    27    17    19    1
    28    19    20    1
    29     4     5    1
    30     5     6    1
    31    31    32   ar
    32    32    33   ar
    33    33    24   ar
    34    32    27   ar
    35     6     1    1
    36    15    10   ar
    37    20    13    1
    38     7     8    1
    39    16    21    1
@<TRIPOS>MOLECULE
*****
 35 39 0 0 0
SMALL
GASTEIGER

@<TRIPOS>ATOM
      1 C         142.5516  144.7044  163.4394 C.3     1  UNL1        0.2355
      2 O         142.4210  144.6418  161.9464 O.3     1  UNL1       -0.3290
      3 C         141.0782  144.4082  161.3202 C.3     1  UNL1        0.1629
      4 C         139.8659  144.2374  162.1870 C.3     1  UNL1        0.1144
      5 C         139.9965  144.3001  163.6799 C.3     1  UNL1        0.1629
      6 O         141.3394  144.5336  164.3062 O.3     1  UNL1       -0.3290
      7 N         138.5230  144.0039  161.5607 N.3     1  UNL1       -0.2895
      8 H         138.4150  144.7034  160.8263 H       1  UNL1        0.1237
      9 C         138.2045  142.6747  160.9429 C.3     1  UNL1        0.1153
     10 C         138.4423  141.4117  161.7164 C.ar    1  UNL1        0.0765
     11 C         139.0856  140.2328  161.0482 C.ar    1  UNL1        0.0193
     12 C         139.3234  138.9699  161.8218 C.ar    1  UNL1        0.0411
     13 C         138.9180  138.8858  163.2635 C.ar    1  UNL1        0.1708
     14 C         138.2747  140.0646  163.9317 C.ar    1  UNL1        0.1682
     15 N         138.0369  141.3277  163.1581 N.ar    1  UNL1       -0.2304
     16 N         137.8693  139.9806  165.3734 N.am    1  UNL1       -0.2639
     17 C         138.1071  138.7176  166.1469 C.2     1  UNL1        0.2718
     18 O         137.7016  138.6336  167.5886 O.2     1  UNL1       -0.2707
     19 C         138.7503  137.5387  165.4788 C.3     1  UNL1        0.2898
     20 O         139.1558  137.6228  164.0371 O.3     1  UNL1       -0.4628
     21 H         137.4471  140.7543  165.8119 H       1  UNL1        0.1565
     22 C         143.8945  144.9380  164.0656 C.3     1  UNL1        0.0660
     23 C         144.3774  144.0363  165.1629 C.3     1  UNL1        0.0316
     24 C         141.3695  141.5890  167.4461 C.ar    1  UNL1        0.1388
     25 C         141.3237  140.1003  167.2682 C.ar    1  UNL1        0.0384
     26 C         142.2805  139.4274  166.3293 C.ar    1  UNL1        0.0222
     27 C         143.2831  140.2431  165.5682 C.ar    1  UNL1        0.0812
     28 N         144.2399  139.5701  164.6292 N.ar    1  UNL1       -0.2439
     29 C         145.2426  140.3859  163.8682 C.ar    1  UNL1        0.0985
     30 C         145.2884  141.8746  164.0460 C.ar    1  UNL1        0.0164
     31 C         144.3316  142.5476  164.9850 C.ar    1  UNL1       -0.0189
     32 C         143.3289  141.7318  165.7461 C.ar    1  UNL1        0.0168
     33 C         142.3721  142.4047  166.6850 C.ar    1  UNL1        0.0381
     34 C         140.9274  142.9505  169.6142 C.3     1  UNL1        0.2525
     35 O         140.4127  142.2619  168.3851 O.3     1  UNL1       -0.4714
@<TRIPOS>BOND
     1    34    35    1
     2    35    24    1
     3    24    25   ar
     4    25    26   ar
     5    26    27   ar
     6    27    28   ar
     7    28    29   ar
     8    29    30   ar
     9    30    31   ar
    10    31    23    1
    11    23    22    1
    12     1    22    1
    13     1     2    1
    14     2     3    1
    15     3     4    1
    16     4     7    1
    17     7     9    1
    18     9    10    1
    19    10    11   ar
    20    11    12   ar
    21    12    13   ar
    22    13    14   ar
    23    14    15   ar
    24    14    16    1
    25    16    17   am
    26    17    18    2
    27    17    19    1
    28    19    20    1
    29     4     5    1
    30     5     6    1
    31    31    32   ar
    32    32    33   ar
    33    33    24   ar
    34    32    27   ar
    35     6     1    1
    36    15    10   ar
    37    20    13    1
    38     7     8    1
    39    16    21    1
@<TRIPOS>MOLECULE
*****
 35 39 0 0 0
SMALL
GASTEIGER

@<TRIPOS>ATOM
      1 C         141.8717  138.1336  164.1534 C.3     1  UNL1        0.2355
      2 O         143.0009  138.3772  165.1102 O.3     1  UNL1       -0.3290
      3 C         144.1874  139.1876  164.6795 C.3     1  UNL1        0.1629
      4 C         144.2447  139.7543  163.2918 C.3     1  UNL1        0.1144
      5 C         143.1155  139.5106  162.3349 C.3     1  UNL1        0.1629
      6 O         141.9290  138.7002  162.7658 O.3     1  UNL1       -0.3290
      7 N         145.4312  140.5647  162.8610 N.3     1  UNL1       -0.2895
      8 H         145.4735  140.5068  161.8435 H       1  UNL1        0.1237
      9 C         145.5144  142.0197  163.2158 C.3     1  UNL1        0.1153
     10 C         144.2955  142.8878  163.1126 C.ar    1  UNL1        0.0765
     11 C         143.6277  143.3940  164.3568 C.ar    1  UNL1        0.0193
     12 C         142.4088  144.2620  164.2536 C.ar    1  UNL1        0.0411
     13 C         141.8576  144.6239  162.9063 C.ar    1  UNL1        0.1708
     14 C         142.5253  144.1177  161.6622 C.ar    1  UNL1        0.1682
     15 N         143.7443  143.2496  161.7653 N.ar    1  UNL1       -0.2304
     16 N         141.9741  144.4796  160.3149 N.am    1  UNL1       -0.2639
     17 C         140.7552  145.3476  160.2117 C.2     1  UNL1        0.2718
     18 O         140.2040  145.7095  158.8644 O.2     1  UNL1       -0.2707
     19 C         140.0874  145.8539  161.4558 C.3     1  UNL1        0.2898
     20 O         140.6386  145.4920  162.8032 O.3     1  UNL1       -0.4628
     21 H         142.4124  144.1473  159.4983 H       1  UNL1        0.1565
     22 C         140.6853  137.3232  164.5842 C.3     1  UNL1        0.0660
     23 C         139.5415  137.9863  165.2929 C.3     1  UNL1        0.0316
     24 C         137.9052  141.3112  162.7401 C.ar    1  UNL1        0.1388
     25 C         138.0285  142.7355  163.1941 C.ar    1  UNL1        0.0384
     26 C         138.6973  143.0515  164.4990 C.ar    1  UNL1        0.0222
     27 C         139.2428  141.9432  165.3499 C.ar    1  UNL1        0.0812
     28 N         139.9116  142.2592  166.6549 N.ar    1  UNL1       -0.2439
     29 C         140.4570  141.1509  167.5058 C.ar    1  UNL1        0.0985
     30 C         140.3337  139.7265  167.0518 C.ar    1  UNL1        0.0164
     31 C         139.6649  139.4105  165.7469 C.ar    1  UNL1       -0.0189
     32 C         139.1194  140.5189  164.8959 C.ar    1  UNL1        0.0168
     33 C         138.4506  140.2029  163.5910 C.ar    1  UNL1        0.0381
     34 C         137.5409  139.7075  160.7288 C.3     1  UNL1        0.2525
     35 O         137.2364  140.9952  161.4351 O.3     1  UNL1       -0.4714
@<TRIPOS>BOND
     1    34    35    1
     2    35    24    1
     3    24    25   ar
     4    25    26   ar
     5    26    27   ar
     6    27    28   ar
     7    28    29   ar
     8    29    30   ar
     9    30    31   ar
    10    31    23    1
    11    23    22    1
    12     1    22    1
    13     1     2    1
    14     2     3    1
    15     3     4    1
    16     4     7    1
    17     7     9    1
    18     9    10    1
    19    10    11   ar
    20    11    12   ar
    21    12    13   ar
    22    13    14   ar
    23    14    15   ar
    24    14    16    1
    25    16    17   am
    26    17    18    2
    27    17    19    1
    28    19    20    1
    29     4     5    1
    30     5     6    1
    31    31    32   ar
    32    32    33   ar
    33    33    24   ar
    34    32    27   ar
    35     6     1    1
    36    15    10   ar
    37    20    13    1
    38     7     8    1
    39    16    21    1
@<TRIPOS>MOLECULE
*****
 35 39 0 0 0
SMALL
GASTEIGER

@<TRIPOS>ATOM
      1 C         140.5041  137.5675  164.3003 C.3     1  UNL1        0.2355
      2 O         141.6787  138.1756  165.0079 O.3     1  UNL1       -0.3290
      3 C         142.9190  138.5239  164.2396 C.3     1  UNL1        0.1629
      4 C         142.9847  138.2642  162.7636 C.3     1  UNL1        0.1144
      5 C         141.8102  137.6561  162.0561 C.3     1  UNL1        0.1629
      6 O         140.5698  137.3077  162.8244 O.3     1  UNL1       -0.3290
      7 N         144.2250  138.6125  161.9953 N.3     1  UNL1       -0.2895
      8 H         144.3908  137.8476  161.3413 H       1  UNL1        0.1237
      9 C         144.2824  139.8827  161.1996 C.3     1  UNL1        0.1153
     10 C         143.8551  141.1783  161.8231 C.ar    1  UNL1        0.0765
     11 C         144.7608  141.8792  162.7919 C.ar    1  UNL1        0.0193
     12 C         144.3335  143.1748  163.4154 C.ar    1  UNL1        0.0411
     13 C         143.0004  143.7695  163.0702 C.ar    1  UNL1        0.1708
     14 C         142.0946  143.0687  162.1016 C.ar    1  UNL1        0.1682
     15 N         142.5220  141.7730  161.4780 N.ar    1  UNL1       -0.2304
     16 N         140.7615  143.6634  161.7564 N.am    1  UNL1       -0.2639
     17 C         140.3342  144.9590  162.3800 C.2     1  UNL1        0.2718
     18 O         139.0011  145.5537  162.0348 O.2     1  UNL1       -0.2707
     19 C         141.2400  145.6599  163.3487 C.3     1  UNL1        0.2898
     20 O         142.5731  145.0652  163.6938 O.3     1  UNL1       -0.4628
     21 H         140.1671  143.2034  161.1206 H       1  UNL1        0.1565
     22 C         139.2638  137.2191  165.0686 C.3     1  UNL1        0.0660
     23 C         138.3722  138.3082  165.5873 C.3     1  UNL1        0.0316
     24 C         140.5217  141.4483  167.9893 C.ar    1  UNL1        0.1388
     25 C         140.6523  142.8433  167.4538 C.ar    1  UNL1        0.0384
     26 C         140.0664  143.1916  166.1176 C.ar    1  UNL1        0.0222
     27 C         139.3499  142.1450  165.3170 C.ar    1  UNL1        0.0812
     28 N         138.7641  142.4934  163.9808 N.ar    1  UNL1       -0.2439
     29 C         138.0476  141.4467  163.1801 C.ar    1  UNL1        0.0985
     30 C         137.9169  140.0516  163.7156 C.ar    1  UNL1        0.0164
     31 C         138.5028  139.7032  165.0518 C.ar    1  UNL1       -0.0189
     32 C         139.2193  140.7500  165.8525 C.ar    1  UNL1        0.0168
     33 C         139.8052  140.4016  167.1887 C.ar    1  UNL1        0.0381
     34 C         140.5245  139.9764  170.1302 C.3     1  UNL1        0.2525
     35 O         141.1076  141.0999  169.3255 O.3     1  UNL1       -0.4714
@<TRIPOS>BOND
     1    34    35    1
     2    35    24    1
     3    24    25   ar
     4    25    26   ar
     5    26    27   ar
     6    27    28   ar
     7    28    29   ar
     8    29    30   ar
     9    30    31   ar
    10    31    23    1
    11    23    22    1
    12     1    22    1
    13     1     2    1
    14     2     3    1
    15     3     4    1
    16     4     7    1
    17     7     9    1
    18     9    10    1
    19    10    11   ar
    20    11    12   ar
    21    12    13   ar
    22    13    14   ar
    23    14    15   ar
    24    14    16    1
    25    16    17   am
    26    17    18    2
    27    17    19    1
    28    19    20    1
    29     4     5    1
    30     5     6    1
    31    31    32   ar
    32    32    33   ar
    33    33    24   ar
    34    32    27   ar
    35     6     1    1
    36    15    10   ar
    37    20    13    1
    38     7     8    1
    39    16    21    1
@<TRIPOS>MOLECULE
*****
 35 39 0 0 0
SMALL
GASTEIGER

@<TRIPOS>ATOM
      1 C         141.8260  138.2556  164.4771 C.3     1  UNL1        0.2355
      2 O         140.3756  138.3001  164.8573 O.3     1  UNL1       -0.3290
      3 C         139.3191  138.2191  163.7957 C.3     1  UNL1        0.1629
      4 C         139.7129  138.0936  162.3537 C.3     1  UNL1        0.1144
      5 C         141.1632  138.0491  161.9735 C.3     1  UNL1        0.1629
      6 O         142.2198  138.1301  163.0352 O.3     1  UNL1       -0.3290
      7 N         138.6564  138.0126  161.2920 N.3     1  UNL1       -0.2895
      8 H         138.1660  137.1292  161.4314 H       1  UNL1        0.1237
      9 C         137.6068  139.0799  161.1954 C.3     1  UNL1        0.1153
     10 C         137.9839  140.5209  161.3725 C.ar    1  UNL1        0.0765
     11 C         137.3501  141.3335  162.4625 C.ar    1  UNL1        0.0193
     12 C         137.7272  142.7745  162.6396 C.ar    1  UNL1        0.0411
     13 C         138.7382  143.4028  161.7268 C.ar    1  UNL1        0.1708
     14 C         139.3720  142.5902  160.6369 C.ar    1  UNL1        0.1682
     15 N         138.9949  141.1492  160.4598 N.ar    1  UNL1       -0.2304
     16 N         140.3830  143.2186  159.7242 N.am    1  UNL1       -0.2639
     17 C         140.7601  144.6595  159.9013 C.2     1  UNL1        0.2718
     18 O         141.7711  145.2879  158.9885 O.2     1  UNL1       -0.2707
     19 C         140.1262  145.4722  160.9912 C.3     1  UNL1        0.2898
     20 O         139.1153  144.8439  161.9040 O.3     1  UNL1       -0.4628
     21 H         140.7990  142.6852  159.0089 H       1  UNL1        0.1565
     22 C         142.8825  138.3365  165.5388 C.3     1  UNL1        0.0660
     23 C         143.3611  139.6742  166.0201 C.3     1  UNL1        0.0316
     24 C         140.9144  143.3501  165.1534 C.ar    1  UNL1        0.1388
     25 C         141.4117  144.3673  164.1695 C.ar    1  UNL1        0.0384
     26 C         142.7246  144.1591  163.4745 C.ar    1  UNL1        0.0222
     27 C         143.5402  142.9339  163.7634 C.ar    1  UNL1        0.0812
     28 N         144.8530  142.7257  163.0684 N.ar    1  UNL1       -0.2439
     29 C         145.6686  141.5004  163.3573 C.ar    1  UNL1        0.0985
     30 C         145.1713  140.4832  164.3412 C.ar    1  UNL1        0.0164
     31 C         143.8584  140.6914  165.0362 C.ar    1  UNL1       -0.0189
     32 C         143.0428  141.9167  164.7473 C.ar    1  UNL1        0.0168
     33 C         141.7300  142.1249  165.4423 C.ar    1  UNL1        0.0381
     34 C         138.7725  144.7693  165.5385 C.3     1  UNL1        0.2525
     35 O         139.6015  143.5583  165.8484 O.3     1  UNL1       -0.4714
@<TRIPOS>BOND
     1    34    35    1
     2    35    24    1
     3    24    25   ar
     4    25    26   ar
     5    26    27   ar
     6    27    28   ar
     7    28    29   ar
     8    29    30   ar
     9    30    31   ar
    10    31    23    1
    11    23    22    1
    12     1    22    1
    13     1     2    1
    14     2     3    1
    15     3     4    1
    16     4     7    1
    17     7     9    1
    18     9    10    1
    19    10    11   ar
    20    11    12   ar
    21    12    13   ar
    22    13    14   ar
    23    14    15   ar
    24    14    16    1
    25    16    17   am
    26    17    18    2
    27    17    19    1
    28    19    20    1
    29     4     5    1
    30     5     6    1
    31    31    32   ar
    32    32    33   ar
    33    33    24   ar
    34    32    27   ar
    35     6     1    1
    36    15    10   ar
    37    20    13    1
    38     7     8    1
    39    16    21    1
@<TRIPOS>MOLECULE
*****
 35 39 0 0 0
SMALL
GASTEIGER

@<TRIPOS>ATOM
      1 C         141.8420  137.8800  164.7120 C.3     1  UNL1        0.2355
      2 O         140.4006  137.7728  165.1129 O.3     1  UNL1       -0.3290
      3 C         139.3332  137.6988  164.0616 C.3     1  UNL1        0.1629
      4 C         139.7073  137.7321  162.6094 C.3     1  UNL1        0.1144
      5 C         141.1488  137.8392  162.2085 C.3     1  UNL1        0.1629
      6 O         142.2161  137.9132  163.2599 O.3     1  UNL1       -0.3290
      7 N         138.6400  137.6581  161.5581 N.3     1  UNL1       -0.2895
      8 H         138.2029  136.7407  161.6463 H       1  UNL1        0.1237
      9 C         137.5300  138.6670  161.5439 C.3     1  UNL1        0.1153
     10 C         137.8466  140.1313  161.6178 C.ar    1  UNL1        0.0765
     11 C         138.2273  140.8800  160.3749 C.ar    1  UNL1        0.0193
     12 C         138.5438  142.3444  160.4489 C.ar    1  UNL1        0.0411
     13 C         138.4796  143.0601  161.7655 C.ar    1  UNL1        0.1708
     14 C         138.0989  142.3114  163.0083 C.ar    1  UNL1        0.1682
     15 N         137.7823  140.8470  162.9344 N.ar    1  UNL1       -0.2304
     16 N         138.0346  143.0271  164.3250 N.am    1  UNL1       -0.2639
     17 C         138.3512  144.4915  164.3989 C.2     1  UNL1        0.2718
     18 O         138.2869  145.2071  165.7156 O.2     1  UNL1       -0.2707
     19 C         138.7319  145.2402  163.1561 C.3     1  UNL1        0.2898
     20 O         138.7962  144.5245  161.8394 O.3     1  UNL1       -0.4628
     21 H         137.7847  142.5357  165.1407 H       1  UNL1        0.1565
     22 C         142.9094  137.9539  165.7633 C.3     1  UNL1        0.0660
     23 C         143.3933  139.2884  166.2483 C.3     1  UNL1        0.0316
     24 C         143.9229  142.7060  163.3692 C.ar    1  UNL1        0.1388
     25 C         142.9834  143.8745  163.4112 C.ar    1  UNL1        0.0384
     26 C         141.8673  143.9038  164.4130 C.ar    1  UNL1        0.0222
     27 C         141.6907  142.7647  165.3727 C.ar    1  UNL1        0.0812
     28 N         140.5747  142.7940  166.3744 N.ar    1  UNL1       -0.2439
     29 C         140.3981  141.6548  167.3341 C.ar    1  UNL1        0.0985
     30 C         141.3377  140.4862  167.2921 C.ar    1  UNL1        0.0164
     31 C         142.4538  140.4569  166.2903 C.ar    1  UNL1       -0.0189
     32 C         142.6303  141.5962  165.3306 C.ar    1  UNL1        0.0168
     33 C         143.7464  141.5668  164.3289 C.ar    1  UNL1        0.0381
     34 C         144.7301  142.5737  160.9032 C.3     1  UNL1        0.2525
     35 O         145.0390  142.6767  162.3674 O.3     1  UNL1       -0.4714
@<TRIPOS>BOND
     1    34    35    1
     2    35    24    1
     3    24    25   ar
     4    25    26   ar
     5    26    27   ar
     6    27    28   ar
     7    28    29   ar
     8    29    30   ar
     9    30    31   ar
    10    31    23    1
    11    23    22    1
    12     1    22    1
    13     1     2    1
    14     2     3    1
    15     3     4    1
    16     4     7    1
    17     7     9    1
    18     9    10    1
    19    10    11   ar
    20    11    12   ar
    21    12    13   ar
    22    13    14   ar
    23    14    15   ar
    24    14    16    1
    25    16    17   am
    26    17    18    2
    27    17    19    1
    28    19    20    1
    29     4     5    1
    30     5     6    1
    31    31    32   ar
    32    32    33   ar
    33    33    24   ar
    34    32    27   ar
    35     6     1    1
    36    15    10   ar
    37    20    13    1
    38     7     8    1
    39    16    21    1
@<TRIPOS>MOLECULE
*****
 35 39 0 0 0
SMALL
GASTEIGER

@<TRIPOS>ATOM
      1 C         143.5390  141.9970  163.9095 C.3     1  UNL1        0.2355
      2 O         143.7478  142.6369  162.5690 O.3     1  UNL1       -0.3290
      3 C         143.0581  143.9271  162.2382 C.3     1  UNL1        0.1629
      4 C         142.1594  144.5775  163.2479 C.3     1  UNL1        0.1144
      5 C         141.9506  143.9376  164.5884 C.3     1  UNL1        0.1629
      6 O         142.6405  142.6473  164.9192 O.3     1  UNL1       -0.3290
      7 N         141.4696  145.8677  162.9171 N.3     1  UNL1       -0.2895
      8 H         142.0497  146.3429  162.2257 H       1  UNL1        0.1237
      9 C         140.0718  145.8529  162.3731 C.3     1  UNL1        0.1153
     10 C         139.3494  144.5502  162.1970 C.ar    1  UNL1        0.0765
     11 C         138.3856  144.0793  163.2455 C.ar    1  UNL1        0.0193
     12 C         137.6631  142.7767  163.0694 C.ar    1  UNL1        0.0411
     13 C         137.9044  141.9448  161.8447 C.ar    1  UNL1        0.1708
     14 C         138.8681  142.4157  160.7962 C.ar    1  UNL1        0.1682
     15 N         139.5906  143.7184  160.9723 N.ar    1  UNL1       -0.2304
     16 N         139.1094  141.5838  159.5715 N.am    1  UNL1       -0.2639
     17 C         138.3869  140.2812  159.3954 C.2     1  UNL1        0.2718
     18 O         138.6282  139.4493  158.1707 O.2     1  UNL1       -0.2707
     19 C         137.4231  139.8103  160.4439 C.3     1  UNL1        0.2898
     20 O         137.1818  140.6421  161.6686 O.3     1  UNL1       -0.4628
     21 H         139.7419  141.8929  158.8833 H       1  UNL1        0.1565
     22 C         144.2288  140.7068  164.2403 C.3     1  UNL1        0.0660
     23 C         143.5232  139.6679  165.0606 C.3     1  UNL1        0.0316
     24 C         139.5939  139.7608  167.2519 C.ar    1  UNL1        0.1388
     25 C         138.4041  139.0416  166.6890 C.ar    1  UNL1        0.0384
     26 C         138.5239  138.2914  165.3956 C.ar    1  UNL1        0.0222
     27 C         139.8337  138.2604  164.6651 C.ar    1  UNL1        0.0812
     28 N         139.9536  137.5102  163.3717 N.ar    1  UNL1       -0.2439
     29 C         141.2633  137.4793  162.6413 C.ar    1  UNL1        0.0985
     30 C         142.4532  138.1985  163.2042 C.ar    1  UNL1        0.0164
     31 C         142.3334  138.9487  164.4976 C.ar    1  UNL1       -0.0189
     32 C         141.0235  138.9796  165.2281 C.ar    1  UNL1        0.0168
     33 C         140.9036  139.7298  166.5215 C.ar    1  UNL1        0.0381
     34 C         140.4693  140.2772  169.6429 C.3     1  UNL1        0.2525
     35 O         139.4740  140.5110  168.5453 O.3     1  UNL1       -0.4714
@<TRIPOS>BOND
     1    34    35    1
     2    35    24    1
     3    24    25   ar
     4    25    26   ar
     5    26    27   ar
     6    27    28   ar
     7    28    29   ar
     8    29    30   ar
     9    30    31   ar
    10    31    23    1
    11    23    22    1
    12     1    22    1
    13     1     2    1
    14     2     3    1
    15     3     4    1
    16     4     7    1
    17     7     9    1
    18     9    10    1
    19    10    11   ar
    20    11    12   ar
    21    12    13   ar
    22    13    14   ar
    23    14    15   ar
    24    14    16    1
    25    16    17   am
    26    17    18    2
    27    17    19    1
    28    19    20    1
    29     4     5    1
    30     5     6    1
    31    31    32   ar
    32    32    33   ar
    33    33    24   ar
    34    32    27   ar
    35     6     1    1
    36    15    10   ar
    37    20    13    1
    38     7     8    1
    39    16    21    1
@<TRIPOS>MOLECULE
*****
 35 39 0 0 0
SMALL
GASTEIGER

@<TRIPOS>ATOM
      1 C         137.7581  142.7033  163.5521 C.3     1  UNL1        0.2355
      2 O         137.6964  142.5354  162.0628 O.3     1  UNL1       -0.3290
      3 C         137.7316  141.1620  161.4608 C.3     1  UNL1        0.1629
      4 C         137.8284  139.9564  162.3481 C.3     1  UNL1        0.1144
      5 C         137.8901  140.1243  163.8374 C.3     1  UNL1        0.1629
      6 O         137.8549  141.4979  164.4394 O.3     1  UNL1       -0.3290
      7 N         137.8635  138.5830  161.7461 N.3     1  UNL1       -0.2895
      8 H         137.1444  138.5599  161.0232 H       1  UNL1        0.1237
      9 C         139.1259  138.0716  161.1177 C.3     1  UNL1        0.1153
     10 C         140.4553  138.4030  161.7283 C.ar    1  UNL1        0.0765
     11 C         141.5197  139.0572  160.8981 C.ar    1  UNL1        0.0193
     12 C         142.8491  139.3886  161.5086 C.ar    1  UNL1        0.0411
     13 C         143.1142  139.0659  162.9493 C.ar    1  UNL1        0.1708
     14 C         142.0498  138.4118  163.7795 C.ar    1  UNL1        0.1682
     15 N         140.7203  138.0803  163.1690 N.ar    1  UNL1       -0.2304
     16 N         142.3148  138.0891  165.2202 N.am    1  UNL1       -0.2639
     17 C         143.6442  138.4205  165.8307 C.2     1  UNL1        0.2718
     18 O         143.9092  138.0979  167.2715 O.2     1  UNL1       -0.2707
     19 C         144.7087  139.0747  165.0006 C.3     1  UNL1        0.2898
     20 O         144.4436  139.3974  163.5599 O.3     1  UNL1       -0.4628
     21 H         141.6162  137.6598  165.7651 H       1  UNL1        0.1565
     22 C         137.7230  144.0768  164.1541 C.3     1  UNL1        0.0660
     23 C         138.9694  144.6709  164.7401 C.3     1  UNL1        0.0316
     24 C         142.0224  144.3690  161.4480 C.ar    1  UNL1        0.1388
     25 C         143.2436  143.5179  161.6334 C.ar    1  UNL1        0.0384
     26 C         143.4471  142.7674  162.9161 C.ar    1  UNL1        0.0222
     27 C         142.4294  142.8680  164.0135 C.ar    1  UNL1        0.0812
     28 N         142.6329  142.1176  165.2962 N.ar    1  UNL1       -0.2439
     29 C         141.6153  142.2182  166.3935 C.ar    1  UNL1        0.0985
     30 C         140.3940  143.0693  166.2082 C.ar    1  UNL1        0.0164
     31 C         140.1906  143.8198  164.9255 C.ar    1  UNL1       -0.0189
     32 C         141.2083  143.7191  163.8281 C.ar    1  UNL1        0.0168
     33 C         141.0048  144.4696  162.5454 C.ar    1  UNL1        0.0381
     34 C         141.8291  144.3855  158.8572 C.3     1  UNL1        0.2525
     35 O         141.8189  145.1195  160.1653 O.3     1  UNL1       -0.4714
@<TRIPOS>BOND
     1    34    35    1
     2    35    24    1
     3    24    25   ar
     4    25    26   ar
     5    26    27   ar
     6    27    28   ar
     7    28    29   ar
     8    29    30   ar
     9    30    31   ar
    10    31    23    1
    11    23    22    1
    12     1    22    1
    13     1     2    1
    14     2     3    1
    15     3     4    1
    16     4     7    1
    17     7     9    1
    18     9    10    1
    19    10    11   ar
    20    11    12   ar
    21    12    13   ar
    22    13    14   ar
    23    14    15   ar
    24    14    16    1
    25    16    17   am
    26    17    18    2
    27    17    19    1
    28    19    20    1
    29     4     5    1
    30     5     6    1
    31    31    32   ar
    32    32    33   ar
    33    33    24   ar
    34    32    27   ar
    35     6     1    1
    36    15    10   ar
    37    20    13    1
    38     7     8    1
    39    16    21    1
